
  EPA STORM WATER MANAGEMENT MODEL - VERSION 5.2 (Build 5.2.4)
  ------------------------------------------------------------

  WARNING 05: minimum slope used for Conduit 1
  WARNING 04: minimum elevation drop used for Conduit 1001
  WARNING 05: minimum slope used for Conduit 1001
  WARNING 05: minimum slope used for Conduit 1002
  WARNING 05: minimum slope used for Conduit 1004
  WARNING 05: minimum slope used for Conduit 1005
  WARNING 05: minimum slope used for Conduit 1006
  WARNING 05: minimum slope used for Conduit 1007
  WARNING 05: minimum slope used for Conduit 1008
  WARNING 04: minimum elevation drop used for Conduit 1009
  WARNING 05: minimum slope used for Conduit 1009
  WARNING 04: minimum elevation drop used for Conduit 1010
  WARNING 05: minimum slope used for Conduit 1010
  WARNING 04: minimum elevation drop used for Conduit 1011
  WARNING 05: minimum slope used for Conduit 1011
  WARNING 04: minimum elevation drop used for Conduit 1012
  WARNING 05: minimum slope used for Conduit 1012
  WARNING 05: minimum slope used for Conduit 1013
  WARNING 05: minimum slope used for Conduit 1014
  WARNING 05: minimum slope used for Conduit 1015
  WARNING 05: minimum slope used for Conduit 102
  WARNING 05: minimum slope used for Conduit 1021
  WARNING 05: minimum slope used for Conduit 1022
  WARNING 05: minimum slope used for Conduit 1023
  WARNING 05: minimum slope used for Conduit 1024
  WARNING 05: minimum slope used for Conduit 1025
  WARNING 05: minimum slope used for Conduit 1026
  WARNING 05: minimum slope used for Conduit 103
  WARNING 05: minimum slope used for Conduit 1030
  WARNING 05: minimum slope used for Conduit 1033
  WARNING 05: minimum slope used for Conduit 1035
  WARNING 04: minimum elevation drop used for Conduit 104
  WARNING 05: minimum slope used for Conduit 104
  WARNING 05: minimum slope used for Conduit 1040
  WARNING 05: minimum slope used for Conduit 1043
  WARNING 05: minimum slope used for Conduit 1045
  WARNING 05: minimum slope used for Conduit 1047
  WARNING 05: minimum slope used for Conduit 105
  WARNING 05: minimum slope used for Conduit 1051
  WARNING 05: minimum slope used for Conduit 1052
  WARNING 05: minimum slope used for Conduit 1053
  WARNING 05: minimum slope used for Conduit 1054
  WARNING 05: minimum slope used for Conduit 1057
  WARNING 05: minimum slope used for Conduit 1064
  WARNING 05: minimum slope used for Conduit 1065
  WARNING 05: minimum slope used for Conduit 107
  WARNING 05: minimum slope used for Conduit 1072
  WARNING 05: minimum slope used for Conduit 1074
  WARNING 05: minimum slope used for Conduit 1075
  WARNING 05: minimum slope used for Conduit 1076
  WARNING 05: minimum slope used for Conduit 1078
  WARNING 04: minimum elevation drop used for Conduit 1079
  WARNING 05: minimum slope used for Conduit 1079
  WARNING 05: minimum slope used for Conduit 108
  WARNING 05: minimum slope used for Conduit 1080
  WARNING 05: minimum slope used for Conduit 1084
  WARNING 05: minimum slope used for Conduit 1085
  WARNING 05: minimum slope used for Conduit 1087
  WARNING 05: minimum slope used for Conduit 1088
  WARNING 05: minimum slope used for Conduit 109
  WARNING 05: minimum slope used for Conduit 1090
  WARNING 05: minimum slope used for Conduit 1092
  WARNING 05: minimum slope used for Conduit 1093
  WARNING 05: minimum slope used for Conduit 1094
  WARNING 05: minimum slope used for Conduit 1095
  WARNING 05: minimum slope used for Conduit 1096
  WARNING 05: minimum slope used for Conduit 1097
  WARNING 05: minimum slope used for Conduit 1099
  WARNING 05: minimum slope used for Conduit 11
  WARNING 05: minimum slope used for Conduit 110
  WARNING 05: minimum slope used for Conduit 1100
  WARNING 05: minimum slope used for Conduit 1101
  WARNING 05: minimum slope used for Conduit 1102
  WARNING 05: minimum slope used for Conduit 1103
  WARNING 05: minimum slope used for Conduit 1104
  WARNING 05: minimum slope used for Conduit 1105
  WARNING 05: minimum slope used for Conduit 1106
  WARNING 05: minimum slope used for Conduit 1107
  WARNING 05: minimum slope used for Conduit 1108
  WARNING 05: minimum slope used for Conduit 1109
  WARNING 05: minimum slope used for Conduit 1110
  WARNING 05: minimum slope used for Conduit 1111
  WARNING 05: minimum slope used for Conduit 1112
  WARNING 05: minimum slope used for Conduit 1113
  WARNING 05: minimum slope used for Conduit 1114
  WARNING 05: minimum slope used for Conduit 1115
  WARNING 05: minimum slope used for Conduit 1116
  WARNING 05: minimum slope used for Conduit 1117
  WARNING 05: minimum slope used for Conduit 1118
  WARNING 05: minimum slope used for Conduit 1119
  WARNING 05: minimum slope used for Conduit 112
  WARNING 05: minimum slope used for Conduit 1120
  WARNING 05: minimum slope used for Conduit 1121
  WARNING 05: minimum slope used for Conduit 1124
  WARNING 05: minimum slope used for Conduit 1125
  WARNING 05: minimum slope used for Conduit 1128
  WARNING 05: minimum slope used for Conduit 1132
  WARNING 05: minimum slope used for Conduit 1134
  WARNING 05: minimum slope used for Conduit 1135
  WARNING 04: minimum elevation drop used for Conduit 1137
  WARNING 05: minimum slope used for Conduit 1137
  WARNING 05: minimum slope used for Conduit 1139
  WARNING 05: minimum slope used for Conduit 1140
  WARNING 05: minimum slope used for Conduit 1141
  WARNING 05: minimum slope used for Conduit 1142
  WARNING 04: minimum elevation drop used for Conduit 1144
  WARNING 05: minimum slope used for Conduit 1144
  WARNING 05: minimum slope used for Conduit 117
  WARNING 05: minimum slope used for Conduit 120
  WARNING 05: minimum slope used for Conduit 122
  WARNING 05: minimum slope used for Conduit 123
  WARNING 05: minimum slope used for Conduit 125
  WARNING 05: minimum slope used for Conduit 126
  WARNING 05: minimum slope used for Conduit 13
  WARNING 05: minimum slope used for Conduit 132
  WARNING 05: minimum slope used for Conduit 133
  WARNING 05: minimum slope used for Conduit 136
  WARNING 05: minimum slope used for Conduit 139
  WARNING 05: minimum slope used for Conduit 142
  WARNING 05: minimum slope used for Conduit 143
  WARNING 05: minimum slope used for Conduit 144
  WARNING 05: minimum slope used for Conduit 1444
  WARNING 05: minimum slope used for Conduit 145
  WARNING 05: minimum slope used for Conduit 146
  WARNING 05: minimum slope used for Conduit 15
  WARNING 05: minimum slope used for Conduit 153
  WARNING 05: minimum slope used for Conduit 155
  WARNING 05: minimum slope used for Conduit 156
  WARNING 05: minimum slope used for Conduit 157
  WARNING 05: minimum slope used for Conduit 158
  WARNING 05: minimum slope used for Conduit 159
  WARNING 05: minimum slope used for Conduit 16
  WARNING 05: minimum slope used for Conduit 161
  WARNING 05: minimum slope used for Conduit 162
  WARNING 05: minimum slope used for Conduit 165
  WARNING 05: minimum slope used for Conduit 166
  WARNING 05: minimum slope used for Conduit 169
  WARNING 04: minimum elevation drop used for Conduit 171
  WARNING 05: minimum slope used for Conduit 171
  WARNING 05: minimum slope used for Conduit 173
  WARNING 05: minimum slope used for Conduit 178
  WARNING 05: minimum slope used for Conduit 179
  WARNING 05: minimum slope used for Conduit 18
  WARNING 05: minimum slope used for Conduit 181
  WARNING 05: minimum slope used for Conduit 182
  WARNING 05: minimum slope used for Conduit 184
  WARNING 05: minimum slope used for Conduit 185
  WARNING 05: minimum slope used for Conduit 186
  WARNING 05: minimum slope used for Conduit 19
  WARNING 05: minimum slope used for Conduit 195
  WARNING 05: minimum slope used for Conduit 196
  WARNING 05: minimum slope used for Conduit 198
  WARNING 04: minimum elevation drop used for Conduit 199
  WARNING 05: minimum slope used for Conduit 199
  WARNING 05: minimum slope used for Conduit 2
  WARNING 05: minimum slope used for Conduit 20
  WARNING 05: minimum slope used for Conduit 200
  WARNING 05: minimum slope used for Conduit 202
  WARNING 05: minimum slope used for Conduit 204
  WARNING 05: minimum slope used for Conduit 21
  WARNING 05: minimum slope used for Conduit 210
  WARNING 05: minimum slope used for Conduit 211
  WARNING 05: minimum slope used for Conduit 212
  WARNING 05: minimum slope used for Conduit 213
  WARNING 05: minimum slope used for Conduit 214
  WARNING 05: minimum slope used for Conduit 216
  WARNING 05: minimum slope used for Conduit 219
  WARNING 05: minimum slope used for Conduit 220
  WARNING 05: minimum slope used for Conduit 222
  WARNING 05: minimum slope used for Conduit 224
  WARNING 05: minimum slope used for Conduit 225
  WARNING 05: minimum slope used for Conduit 228
  WARNING 05: minimum slope used for Conduit 229
  WARNING 05: minimum slope used for Conduit 23
  WARNING 05: minimum slope used for Conduit 230
  WARNING 05: minimum slope used for Conduit 232
  WARNING 05: minimum slope used for Conduit 233
  WARNING 05: minimum slope used for Conduit 235
  WARNING 05: minimum slope used for Conduit 239
  WARNING 05: minimum slope used for Conduit 241
  WARNING 05: minimum slope used for Conduit 244
  WARNING 05: minimum slope used for Conduit 246
  WARNING 05: minimum slope used for Conduit 25
  WARNING 05: minimum slope used for Conduit 250
  WARNING 05: minimum slope used for Conduit 254
  WARNING 05: minimum slope used for Conduit 261
  WARNING 05: minimum slope used for Conduit 263
  WARNING 05: minimum slope used for Conduit 267
  WARNING 05: minimum slope used for Conduit 268
  WARNING 05: minimum slope used for Conduit 273
  WARNING 05: minimum slope used for Conduit 274
  WARNING 05: minimum slope used for Conduit 276
  WARNING 05: minimum slope used for Conduit 278
  WARNING 05: minimum slope used for Conduit 281
  WARNING 04: minimum elevation drop used for Conduit 282
  WARNING 05: minimum slope used for Conduit 282
  WARNING 05: minimum slope used for Conduit 284
  WARNING 04: minimum elevation drop used for Conduit 286
  WARNING 05: minimum slope used for Conduit 286
  WARNING 04: minimum elevation drop used for Conduit 287
  WARNING 05: minimum slope used for Conduit 287
  WARNING 05: minimum slope used for Conduit 29
  WARNING 05: minimum slope used for Conduit 290
  WARNING 05: minimum slope used for Conduit 291
  WARNING 05: minimum slope used for Conduit 294
  WARNING 04: minimum elevation drop used for Conduit 299
  WARNING 05: minimum slope used for Conduit 299
  WARNING 05: minimum slope used for Conduit 3
  WARNING 05: minimum slope used for Conduit 30
  WARNING 05: minimum slope used for Conduit 302
  WARNING 05: minimum slope used for Conduit 305
  WARNING 05: minimum slope used for Conduit 309
  WARNING 05: minimum slope used for Conduit 316
  WARNING 05: minimum slope used for Conduit 317
  WARNING 05: minimum slope used for Conduit 318
  WARNING 05: minimum slope used for Conduit 319
  WARNING 05: minimum slope used for Conduit 32
  WARNING 05: minimum slope used for Conduit 323
  WARNING 05: minimum slope used for Conduit 326
  WARNING 04: minimum elevation drop used for Conduit 327
  WARNING 05: minimum slope used for Conduit 327
  WARNING 05: minimum slope used for Conduit 33
  WARNING 05: minimum slope used for Conduit 330
  WARNING 05: minimum slope used for Conduit 335
  WARNING 05: minimum slope used for Conduit 337
  WARNING 05: minimum slope used for Conduit 34
  WARNING 05: minimum slope used for Conduit 340
  WARNING 05: minimum slope used for Conduit 341
  WARNING 05: minimum slope used for Conduit 345
  WARNING 05: minimum slope used for Conduit 347
  WARNING 05: minimum slope used for Conduit 349
  WARNING 05: minimum slope used for Conduit 35
  WARNING 05: minimum slope used for Conduit 350
  WARNING 05: minimum slope used for Conduit 352
  WARNING 05: minimum slope used for Conduit 353
  WARNING 05: minimum slope used for Conduit 356
  WARNING 05: minimum slope used for Conduit 357
  WARNING 05: minimum slope used for Conduit 360
  WARNING 05: minimum slope used for Conduit 362
  WARNING 05: minimum slope used for Conduit 363
  WARNING 04: minimum elevation drop used for Conduit 365
  WARNING 05: minimum slope used for Conduit 365
  WARNING 05: minimum slope used for Conduit 37
  WARNING 05: minimum slope used for Conduit 371
  WARNING 05: minimum slope used for Conduit 372
  WARNING 05: minimum slope used for Conduit 374
  WARNING 04: minimum elevation drop used for Conduit 375
  WARNING 05: minimum slope used for Conduit 375
  WARNING 05: minimum slope used for Conduit 379
  WARNING 05: minimum slope used for Conduit 380
  WARNING 05: minimum slope used for Conduit 381
  WARNING 05: minimum slope used for Conduit 382
  WARNING 05: minimum slope used for Conduit 383
  WARNING 05: minimum slope used for Conduit 384
  WARNING 05: minimum slope used for Conduit 387
  WARNING 05: minimum slope used for Conduit 389
  WARNING 05: minimum slope used for Conduit 391
  WARNING 04: minimum elevation drop used for Conduit 393
  WARNING 05: minimum slope used for Conduit 393
  WARNING 05: minimum slope used for Conduit 395
  WARNING 05: minimum slope used for Conduit 396
  WARNING 05: minimum slope used for Conduit 397
  WARNING 05: minimum slope used for Conduit 407
  WARNING 05: minimum slope used for Conduit 41
  WARNING 05: minimum slope used for Conduit 412
  WARNING 05: minimum slope used for Conduit 416
  WARNING 05: minimum slope used for Conduit 417
  WARNING 05: minimum slope used for Conduit 421
  WARNING 04: minimum elevation drop used for Conduit 422
  WARNING 05: minimum slope used for Conduit 422
  WARNING 05: minimum slope used for Conduit 424
  WARNING 05: minimum slope used for Conduit 425
  WARNING 05: minimum slope used for Conduit 429
  WARNING 05: minimum slope used for Conduit 43
  WARNING 05: minimum slope used for Conduit 430
  WARNING 05: minimum slope used for Conduit 431
  WARNING 05: minimum slope used for Conduit 433
  WARNING 05: minimum slope used for Conduit 435
  WARNING 05: minimum slope used for Conduit 436
  WARNING 05: minimum slope used for Conduit 438
  WARNING 05: minimum slope used for Conduit 44
  WARNING 05: minimum slope used for Conduit 442
  WARNING 05: minimum slope used for Conduit 446
  WARNING 04: minimum elevation drop used for Conduit 448
  WARNING 05: minimum slope used for Conduit 448
  WARNING 05: minimum slope used for Conduit 451
  WARNING 05: minimum slope used for Conduit 452
  WARNING 05: minimum slope used for Conduit 453
  WARNING 05: minimum slope used for Conduit 458
  WARNING 05: minimum slope used for Conduit 46
  WARNING 04: minimum elevation drop used for Conduit 460
  WARNING 05: minimum slope used for Conduit 460
  WARNING 05: minimum slope used for Conduit 461
  WARNING 05: minimum slope used for Conduit 463
  WARNING 05: minimum slope used for Conduit 465
  WARNING 05: minimum slope used for Conduit 466
  WARNING 05: minimum slope used for Conduit 47
  WARNING 05: minimum slope used for Conduit 471
  WARNING 05: minimum slope used for Conduit 473
  WARNING 05: minimum slope used for Conduit 474
  WARNING 05: minimum slope used for Conduit 476
  WARNING 05: minimum slope used for Conduit 478
  WARNING 05: minimum slope used for Conduit 479
  WARNING 05: minimum slope used for Conduit 48
  WARNING 05: minimum slope used for Conduit 480
  WARNING 05: minimum slope used for Conduit 481
  WARNING 05: minimum slope used for Conduit 482
  WARNING 05: minimum slope used for Conduit 483
  WARNING 04: minimum elevation drop used for Conduit 484
  WARNING 05: minimum slope used for Conduit 484
  WARNING 05: minimum slope used for Conduit 488
  WARNING 05: minimum slope used for Conduit 489
  WARNING 05: minimum slope used for Conduit 49
  WARNING 04: minimum elevation drop used for Conduit 491
  WARNING 05: minimum slope used for Conduit 491
  WARNING 05: minimum slope used for Conduit 492
  WARNING 05: minimum slope used for Conduit 494
  WARNING 05: minimum slope used for Conduit 495
  WARNING 04: minimum elevation drop used for Conduit 497
  WARNING 05: minimum slope used for Conduit 497
  WARNING 05: minimum slope used for Conduit 499
  WARNING 05: minimum slope used for Conduit 50
  WARNING 05: minimum slope used for Conduit 51
  WARNING 05: minimum slope used for Conduit 510
  WARNING 05: minimum slope used for Conduit 513
  WARNING 05: minimum slope used for Conduit 514
  WARNING 05: minimum slope used for Conduit 516
  WARNING 05: minimum slope used for Conduit 517
  WARNING 05: minimum slope used for Conduit 518
  WARNING 05: minimum slope used for Conduit 52
  WARNING 05: minimum slope used for Conduit 521
  WARNING 04: minimum elevation drop used for Conduit 522
  WARNING 05: minimum slope used for Conduit 522
  WARNING 05: minimum slope used for Conduit 525
  WARNING 05: minimum slope used for Conduit 528
  WARNING 05: minimum slope used for Conduit 529
  WARNING 05: minimum slope used for Conduit 532
  WARNING 05: minimum slope used for Conduit 534
  WARNING 05: minimum slope used for Conduit 535
  WARNING 05: minimum slope used for Conduit 536
  WARNING 05: minimum slope used for Conduit 538
  WARNING 05: minimum slope used for Conduit 54
  WARNING 05: minimum slope used for Conduit 541
  WARNING 05: minimum slope used for Conduit 543
  WARNING 05: minimum slope used for Conduit 544
  WARNING 04: minimum elevation drop used for Conduit 546
  WARNING 05: minimum slope used for Conduit 546
  WARNING 05: minimum slope used for Conduit 548
  WARNING 05: minimum slope used for Conduit 55
  WARNING 05: minimum slope used for Conduit 550
  WARNING 05: minimum slope used for Conduit 551
  WARNING 05: minimum slope used for Conduit 553
  WARNING 05: minimum slope used for Conduit 554
  WARNING 05: minimum slope used for Conduit 556
  WARNING 05: minimum slope used for Conduit 558
  WARNING 05: minimum slope used for Conduit 56
  WARNING 05: minimum slope used for Conduit 562
  WARNING 05: minimum slope used for Conduit 563
  WARNING 05: minimum slope used for Conduit 564
  WARNING 05: minimum slope used for Conduit 565
  WARNING 05: minimum slope used for Conduit 567
  WARNING 05: minimum slope used for Conduit 568
  WARNING 05: minimum slope used for Conduit 569
  WARNING 05: minimum slope used for Conduit 572
  WARNING 05: minimum slope used for Conduit 575
  WARNING 05: minimum slope used for Conduit 576
  WARNING 05: minimum slope used for Conduit 578
  WARNING 05: minimum slope used for Conduit 581
  WARNING 05: minimum slope used for Conduit 583
  WARNING 05: minimum slope used for Conduit 584
  WARNING 05: minimum slope used for Conduit 585
  WARNING 05: minimum slope used for Conduit 586
  WARNING 05: minimum slope used for Conduit 587
  WARNING 05: minimum slope used for Conduit 589
  WARNING 05: minimum slope used for Conduit 593
  WARNING 05: minimum slope used for Conduit 594
  WARNING 05: minimum slope used for Conduit 595
  WARNING 05: minimum slope used for Conduit 596
  WARNING 05: minimum slope used for Conduit 601
  WARNING 05: minimum slope used for Conduit 602
  WARNING 05: minimum slope used for Conduit 604
  WARNING 05: minimum slope used for Conduit 607
  WARNING 05: minimum slope used for Conduit 608
  WARNING 05: minimum slope used for Conduit 609
  WARNING 05: minimum slope used for Conduit 61
  WARNING 04: minimum elevation drop used for Conduit 610
  WARNING 05: minimum slope used for Conduit 610
  WARNING 05: minimum slope used for Conduit 611
  WARNING 04: minimum elevation drop used for Conduit 614
  WARNING 05: minimum slope used for Conduit 614
  WARNING 04: minimum elevation drop used for Conduit 615
  WARNING 05: minimum slope used for Conduit 615
  WARNING 05: minimum slope used for Conduit 616
  WARNING 05: minimum slope used for Conduit 617
  WARNING 05: minimum slope used for Conduit 619
  WARNING 05: minimum slope used for Conduit 622
  WARNING 05: minimum slope used for Conduit 623
  WARNING 05: minimum slope used for Conduit 624
  WARNING 05: minimum slope used for Conduit 625
  WARNING 05: minimum slope used for Conduit 627
  WARNING 05: minimum slope used for Conduit 628
  WARNING 05: minimum slope used for Conduit 629
  WARNING 04: minimum elevation drop used for Conduit 63
  WARNING 05: minimum slope used for Conduit 63
  WARNING 05: minimum slope used for Conduit 630
  WARNING 05: minimum slope used for Conduit 631
  WARNING 05: minimum slope used for Conduit 632
  WARNING 05: minimum slope used for Conduit 633
  WARNING 05: minimum slope used for Conduit 637
  WARNING 05: minimum slope used for Conduit 638
  WARNING 05: minimum slope used for Conduit 640
  WARNING 05: minimum slope used for Conduit 641
  WARNING 05: minimum slope used for Conduit 642
  WARNING 05: minimum slope used for Conduit 643
  WARNING 05: minimum slope used for Conduit 645
  WARNING 05: minimum slope used for Conduit 647
  WARNING 05: minimum slope used for Conduit 648
  WARNING 05: minimum slope used for Conduit 649
  WARNING 05: minimum slope used for Conduit 65
  WARNING 05: minimum slope used for Conduit 651
  WARNING 05: minimum slope used for Conduit 654
  WARNING 05: minimum slope used for Conduit 656
  WARNING 05: minimum slope used for Conduit 657
  WARNING 05: minimum slope used for Conduit 659
  WARNING 05: minimum slope used for Conduit 660
  WARNING 04: minimum elevation drop used for Conduit 661
  WARNING 05: minimum slope used for Conduit 661
  WARNING 05: minimum slope used for Conduit 662
  WARNING 05: minimum slope used for Conduit 667
  WARNING 05: minimum slope used for Conduit 668
  WARNING 05: minimum slope used for Conduit 669
  WARNING 05: minimum slope used for Conduit 670
  WARNING 05: minimum slope used for Conduit 671
  WARNING 05: minimum slope used for Conduit 674
  WARNING 05: minimum slope used for Conduit 677
  WARNING 05: minimum slope used for Conduit 679
  WARNING 05: minimum slope used for Conduit 680
  WARNING 05: minimum slope used for Conduit 684
  WARNING 05: minimum slope used for Conduit 685
  WARNING 05: minimum slope used for Conduit 686
  WARNING 04: minimum elevation drop used for Conduit 687
  WARNING 05: minimum slope used for Conduit 687
  WARNING 05: minimum slope used for Conduit 689
  WARNING 05: minimum slope used for Conduit 69
  WARNING 05: minimum slope used for Conduit 690
  WARNING 05: minimum slope used for Conduit 693
  WARNING 05: minimum slope used for Conduit 695
  WARNING 05: minimum slope used for Conduit 696
  WARNING 05: minimum slope used for Conduit 698
  WARNING 05: minimum slope used for Conduit 700
  WARNING 05: minimum slope used for Conduit 702
  WARNING 05: minimum slope used for Conduit 703
  WARNING 05: minimum slope used for Conduit 704
  WARNING 05: minimum slope used for Conduit 705
  WARNING 05: minimum slope used for Conduit 706
  WARNING 05: minimum slope used for Conduit 707
  WARNING 05: minimum slope used for Conduit 709
  WARNING 05: minimum slope used for Conduit 71
  WARNING 05: minimum slope used for Conduit 710
  WARNING 05: minimum slope used for Conduit 712
  WARNING 05: minimum slope used for Conduit 713
  WARNING 05: minimum slope used for Conduit 717
  WARNING 05: minimum slope used for Conduit 718
  WARNING 05: minimum slope used for Conduit 719
  WARNING 05: minimum slope used for Conduit 72
  WARNING 05: minimum slope used for Conduit 720
  WARNING 05: minimum slope used for Conduit 721
  WARNING 05: minimum slope used for Conduit 723
  WARNING 05: minimum slope used for Conduit 725
  WARNING 05: minimum slope used for Conduit 727
  WARNING 05: minimum slope used for Conduit 73
  WARNING 05: minimum slope used for Conduit 733
  WARNING 05: minimum slope used for Conduit 734
  WARNING 05: minimum slope used for Conduit 737
  WARNING 05: minimum slope used for Conduit 738
  WARNING 05: minimum slope used for Conduit 739
  WARNING 05: minimum slope used for Conduit 74
  WARNING 05: minimum slope used for Conduit 740
  WARNING 05: minimum slope used for Conduit 741
  WARNING 05: minimum slope used for Conduit 742
  WARNING 05: minimum slope used for Conduit 743
  WARNING 05: minimum slope used for Conduit 746
  WARNING 05: minimum slope used for Conduit 747
  WARNING 05: minimum slope used for Conduit 750
  WARNING 05: minimum slope used for Conduit 751
  WARNING 05: minimum slope used for Conduit 752
  WARNING 05: minimum slope used for Conduit 753
  WARNING 05: minimum slope used for Conduit 754
  WARNING 05: minimum slope used for Conduit 755
  WARNING 05: minimum slope used for Conduit 76
  WARNING 05: minimum slope used for Conduit 761
  WARNING 05: minimum slope used for Conduit 762
  WARNING 05: minimum slope used for Conduit 764
  WARNING 05: minimum slope used for Conduit 765
  WARNING 05: minimum slope used for Conduit 766
  WARNING 05: minimum slope used for Conduit 767
  WARNING 05: minimum slope used for Conduit 775
  WARNING 05: minimum slope used for Conduit 776
  WARNING 05: minimum slope used for Conduit 780
  WARNING 05: minimum slope used for Conduit 781
  WARNING 05: minimum slope used for Conduit 783
  WARNING 05: minimum slope used for Conduit 784
  WARNING 05: minimum slope used for Conduit 785
  WARNING 05: minimum slope used for Conduit 787
  WARNING 05: minimum slope used for Conduit 789
  WARNING 05: minimum slope used for Conduit 790
  WARNING 05: minimum slope used for Conduit 791
  WARNING 05: minimum slope used for Conduit 794
  WARNING 05: minimum slope used for Conduit 796
  WARNING 05: minimum slope used for Conduit 798
  WARNING 05: minimum slope used for Conduit 799
  WARNING 05: minimum slope used for Conduit 8
  WARNING 05: minimum slope used for Conduit 800
  WARNING 05: minimum slope used for Conduit 801
  WARNING 05: minimum slope used for Conduit 802
  WARNING 05: minimum slope used for Conduit 804
  WARNING 05: minimum slope used for Conduit 806
  WARNING 05: minimum slope used for Conduit 807
  WARNING 05: minimum slope used for Conduit 808
  WARNING 05: minimum slope used for Conduit 809
  WARNING 05: minimum slope used for Conduit 810
  WARNING 05: minimum slope used for Conduit 811
  WARNING 05: minimum slope used for Conduit 812
  WARNING 05: minimum slope used for Conduit 814
  WARNING 05: minimum slope used for Conduit 815
  WARNING 05: minimum slope used for Conduit 816
  WARNING 05: minimum slope used for Conduit 817
  WARNING 05: minimum slope used for Conduit 819
  WARNING 05: minimum slope used for Conduit 82
  WARNING 05: minimum slope used for Conduit 820
  WARNING 05: minimum slope used for Conduit 822
  WARNING 05: minimum slope used for Conduit 824
  WARNING 05: minimum slope used for Conduit 828
  WARNING 05: minimum slope used for Conduit 829
  WARNING 04: minimum elevation drop used for Conduit 83
  WARNING 05: minimum slope used for Conduit 83
  WARNING 05: minimum slope used for Conduit 834
  WARNING 05: minimum slope used for Conduit 835
  WARNING 05: minimum slope used for Conduit 836
  WARNING 05: minimum slope used for Conduit 837
  WARNING 05: minimum slope used for Conduit 838
  WARNING 05: minimum slope used for Conduit 839
  WARNING 05: minimum slope used for Conduit 84
  WARNING 05: minimum slope used for Conduit 844
  WARNING 05: minimum slope used for Conduit 845
  WARNING 05: minimum slope used for Conduit 846
  WARNING 05: minimum slope used for Conduit 847
  WARNING 05: minimum slope used for Conduit 848
  WARNING 05: minimum slope used for Conduit 849
  WARNING 05: minimum slope used for Conduit 85
  WARNING 05: minimum slope used for Conduit 850
  WARNING 05: minimum slope used for Conduit 853
  WARNING 05: minimum slope used for Conduit 855
  WARNING 05: minimum slope used for Conduit 856
  WARNING 05: minimum slope used for Conduit 857
  WARNING 05: minimum slope used for Conduit 864
  WARNING 05: minimum slope used for Conduit 865
  WARNING 05: minimum slope used for Conduit 866
  WARNING 04: minimum elevation drop used for Conduit 869
  WARNING 05: minimum slope used for Conduit 869
  WARNING 05: minimum slope used for Conduit 87
  WARNING 05: minimum slope used for Conduit 870
  WARNING 05: minimum slope used for Conduit 871
  WARNING 05: minimum slope used for Conduit 872
  WARNING 05: minimum slope used for Conduit 875
  WARNING 05: minimum slope used for Conduit 877
  WARNING 05: minimum slope used for Conduit 878
  WARNING 05: minimum slope used for Conduit 880
  WARNING 05: minimum slope used for Conduit 881
  WARNING 05: minimum slope used for Conduit 883
  WARNING 05: minimum slope used for Conduit 884
  WARNING 05: minimum slope used for Conduit 885
  WARNING 05: minimum slope used for Conduit 886
  WARNING 05: minimum slope used for Conduit 890
  WARNING 05: minimum slope used for Conduit 892
  WARNING 05: minimum slope used for Conduit 893
  WARNING 05: minimum slope used for Conduit 894
  WARNING 05: minimum slope used for Conduit 896
  WARNING 05: minimum slope used for Conduit 898
  WARNING 05: minimum slope used for Conduit 9
  WARNING 05: minimum slope used for Conduit 90
  WARNING 05: minimum slope used for Conduit 901
  WARNING 05: minimum slope used for Conduit 902
  WARNING 05: minimum slope used for Conduit 904
  WARNING 05: minimum slope used for Conduit 905
  WARNING 05: minimum slope used for Conduit 907
  WARNING 05: minimum slope used for Conduit 908
  WARNING 05: minimum slope used for Conduit 912
  WARNING 05: minimum slope used for Conduit 913
  WARNING 05: minimum slope used for Conduit 914
  WARNING 05: minimum slope used for Conduit 915
  WARNING 05: minimum slope used for Conduit 916
  WARNING 05: minimum slope used for Conduit 917
  WARNING 05: minimum slope used for Conduit 918
  WARNING 05: minimum slope used for Conduit 922
  WARNING 05: minimum slope used for Conduit 923
  WARNING 05: minimum slope used for Conduit 924
  WARNING 05: minimum slope used for Conduit 925
  WARNING 05: minimum slope used for Conduit 926
  WARNING 05: minimum slope used for Conduit 927
  WARNING 05: minimum slope used for Conduit 928
  WARNING 05: minimum slope used for Conduit 929
  WARNING 05: minimum slope used for Conduit 930
  WARNING 05: minimum slope used for Conduit 931
  WARNING 05: minimum slope used for Conduit 932
  WARNING 05: minimum slope used for Conduit 933
  WARNING 05: minimum slope used for Conduit 934
  WARNING 05: minimum slope used for Conduit 936
  WARNING 05: minimum slope used for Conduit 937
  WARNING 05: minimum slope used for Conduit 94
  WARNING 05: minimum slope used for Conduit 944
  WARNING 05: minimum slope used for Conduit 945
  WARNING 05: minimum slope used for Conduit 949
  WARNING 05: minimum slope used for Conduit 951
  WARNING 05: minimum slope used for Conduit 953
  WARNING 05: minimum slope used for Conduit 955
  WARNING 05: minimum slope used for Conduit 956
  WARNING 05: minimum slope used for Conduit 957
  WARNING 05: minimum slope used for Conduit 959
  WARNING 05: minimum slope used for Conduit 96
  WARNING 05: minimum slope used for Conduit 960
  WARNING 05: minimum slope used for Conduit 961
  WARNING 05: minimum slope used for Conduit 962
  WARNING 05: minimum slope used for Conduit 963
  WARNING 05: minimum slope used for Conduit 964
  WARNING 05: minimum slope used for Conduit 966
  WARNING 05: minimum slope used for Conduit 967
  WARNING 05: minimum slope used for Conduit 969
  WARNING 05: minimum slope used for Conduit 976
  WARNING 05: minimum slope used for Conduit 977
  WARNING 05: minimum slope used for Conduit 978
  WARNING 05: minimum slope used for Conduit 979
  WARNING 05: minimum slope used for Conduit 980
  WARNING 05: minimum slope used for Conduit 981
  WARNING 05: minimum slope used for Conduit 982
  WARNING 05: minimum slope used for Conduit 983
  WARNING 05: minimum slope used for Conduit 986
  WARNING 05: minimum slope used for Conduit 988
  WARNING 05: minimum slope used for Conduit 989
  WARNING 05: minimum slope used for Conduit 992
  WARNING 05: minimum slope used for Conduit 993
  WARNING 05: minimum slope used for Conduit 995
  WARNING 05: minimum slope used for Conduit 996
  WARNING 05: minimum slope used for Conduit 998
  WARNING 05: minimum slope used for Conduit 999
  WARNING 02: maximum depth increased for Node F1409034
  
  *************
  Element Count
  *************
  Number of rain gages ...... 0
  Number of subcatchments ... 0
  Number of nodes ........... 1135
  Number of links ........... 1146
  Number of pollutants ...... 1
  Number of land uses ....... 4
  
  
  *****************
  Pollutant Summary
  *****************
                               Ppt.      GW         Kdecay
  Name                 Units   Concen.   Concen.    1/days    CoPollutant
  -----------------------------------------------------------------------
  TSS                   MG/L      0.00      0.00      0.00
  
  
  ***************
  Landuse Summary
  ***************
                         Sweeping   Maximum      Last
  Name                   Interval   Removal     Swept
  ---------------------------------------------------
  Imperv                     0.00      0.00      0.00
  Trees                      0.00      0.00      0.00
  TurfGrass                  0.00      0.00      0.00
  Water                      0.00      0.00      0.00
  
  
  ************
  Node Summary
  ************
                                           Invert      Max.    Ponded    External
  Name                 Type                 Elev.     Depth      Area    Inflow  
  -------------------------------------------------------------------------------
  05-0088              JUNCTION              1.89      0.96       0.0    Yes
  07-0077              JUNCTION              2.13      1.03       0.0    Yes
  11-0057              JUNCTION             -1.10      2.29       0.0    Yes
  13-0000              JUNCTION              1.19      0.72       0.0    Yes
  E13159               JUNCTION              0.19      2.24       0.0    Yes
  E1331922             JUNCTION              1.33      0.86       0.0    Yes
  E1331923             JUNCTION              1.85      0.42       0.0    Yes
  E1331924             JUNCTION              0.69      1.27       0.0    Yes
  E1331925             JUNCTION              1.47      0.39       0.0    Yes
  E1331926             JUNCTION              1.51      0.47       0.0    Yes
  E1331927             JUNCTION              1.56      0.33       0.0    Yes
  E1331928             JUNCTION              1.61      0.41       0.0    Yes
  E1331929             JUNCTION              1.68      0.31       0.0    Yes
  E1331930             JUNCTION              0.53      1.31       0.0    Yes
  E1331931             JUNCTION              0.70      1.00       0.0    Yes
  E1331932             JUNCTION              0.81      1.17       0.0    Yes
  E1331933             JUNCTION              1.09      0.85       0.0    Yes
  E1331934             JUNCTION              1.18      0.79       0.0    Yes
  E1331935             JUNCTION              1.17      0.77       0.0    Yes
  E1331936             JUNCTION              1.26      0.85       0.0    Yes
  E1331937             JUNCTION              1.30      0.79       0.0    Yes
  E1331938             JUNCTION              1.38      1.10       0.0    Yes
  E1331939             JUNCTION              1.83      0.87       0.0    Yes
  E1331940             JUNCTION              1.98      0.74       0.0    Yes
  E133385              JUNCTION              0.32      1.60       0.0    Yes
  E133394              JUNCTION             -0.27      1.75       0.0    Yes
  E133395              JUNCTION              0.09      1.25       0.0    Yes
  E133396              JUNCTION              0.09      1.25       0.0    Yes
  E133397              JUNCTION              1.07      0.22       0.0    Yes
  E133398              JUNCTION             -0.25      1.86       0.0    Yes
  E133399              JUNCTION             -0.12      1.54       0.0    Yes
  E133401              JUNCTION             -0.23      1.75       0.0    Yes
  E133402              JUNCTION              0.04      1.29       0.0    Yes
  E133403              JUNCTION              0.12      1.38       0.0    Yes
  E133404              JUNCTION              1.19      0.21       0.0    Yes
  E133407              JUNCTION             -0.21      1.93       0.0    Yes
  E133410              JUNCTION             -0.21      1.94       0.0    Yes
  E133411              JUNCTION              0.48      0.98       0.0    Yes
  E133412              JUNCTION              0.51      0.89       0.0    Yes
  E133414              JUNCTION             -0.20      1.92       0.0    Yes
  E133415              JUNCTION              0.47      1.00       0.0    Yes
  E133416              JUNCTION             -0.20      1.95       0.0    Yes
  E133420              JUNCTION             -0.19      1.96       0.0    Yes
  E133421              JUNCTION              0.30      1.37       0.0    Yes
  E133464              JUNCTION              1.20      1.38       0.0    Yes
  E133465              JUNCTION              1.46      1.12       0.0    Yes
  E133468              JUNCTION              1.17      1.54       0.0    Yes
  E133469              JUNCTION              1.35      1.52       0.0    Yes
  E133470              JUNCTION              1.17      1.59       0.0    Yes
  E133472              JUNCTION              1.23      1.62       0.0    Yes
  E133473              JUNCTION              1.27      1.57       0.0    Yes
  E133474              JUNCTION              1.56      1.52       0.0    Yes
  E133475              JUNCTION              2.31      0.67       0.0    Yes
  E133476              JUNCTION              1.60      1.58       0.0    Yes
  E133477              JUNCTION              2.13      0.97       0.0    Yes
  E133478              JUNCTION              1.91      0.70       0.0    Yes
  E133479              JUNCTION              1.93      0.68       0.0    Yes
  E133480              JUNCTION              1.92      0.67       0.0    Yes
  E133481              JUNCTION              1.98      0.42       0.0    Yes
  E133482              JUNCTION              1.60      1.37       0.0    Yes
  E133484              JUNCTION              1.66      1.30       0.0    Yes
  E133487              JUNCTION              1.65      1.26       0.0    Yes
  E134007              JUNCTION              0.37      1.97       0.0    Yes
  E134008              JUNCTION              1.54      0.92       0.0    Yes
  E134009              JUNCTION              1.68      0.74       0.0    Yes
  E134010              JUNCTION              0.70      1.97       0.0    Yes
  E134011              JUNCTION              0.95      1.64       0.0    Yes
  E134203              JUNCTION             -0.11      1.83       0.0    Yes
  E134204              JUNCTION              0.42      1.37       0.0    Yes
  E134207              JUNCTION              0.17      1.37       0.0    Yes
  E134208              JUNCTION              0.20      1.55       0.0
  E134209              JUNCTION              0.19      1.76       0.0    Yes
  E134210              JUNCTION              0.41      1.64       0.0    Yes
  E134211              JUNCTION              0.43      1.57       0.0    Yes
  E134213              JUNCTION              0.43      1.15       0.0    Yes
  E134214              JUNCTION              0.43      1.32       0.0    Yes
  E134215              JUNCTION              1.04      0.65       0.0    Yes
  E134216              JUNCTION              1.05      0.57       0.0    Yes
  E134217              JUNCTION              1.05      0.81       0.0    Yes
  E134218              JUNCTION              1.10      0.62       0.0    Yes
  E134219              JUNCTION              0.25      1.73       0.0    Yes
  E134220              JUNCTION              0.54      1.31       0.0
  E134221              JUNCTION              0.77      1.25       0.0    Yes
  E134222              JUNCTION              0.27      1.70       0.0    Yes
  E134223              JUNCTION              0.86      1.11       0.0    Yes
  E134224              JUNCTION              0.33      1.90       0.0    Yes
  E134250              JUNCTION              0.26      2.52       0.0    Yes
  E134253              JUNCTION              0.37      2.18       0.0    Yes
  E134254              JUNCTION              0.51      1.30       0.0    Yes
  E134255              JUNCTION              1.14      1.18       0.0    Yes
  E134256              JUNCTION              1.22      1.41       0.0    Yes
  E134257              JUNCTION              0.76      0.97       0.0    Yes
  E134258              JUNCTION              0.88      1.37       0.0    Yes
  E134259              JUNCTION              1.05      0.65       0.0    Yes
  E134260              JUNCTION              1.08      0.83       0.0    Yes
  E134261              JUNCTION              0.83      1.28       0.0    Yes
  E134262              JUNCTION              0.99      1.28       0.0    Yes
  E134263              JUNCTION              1.04      0.85       0.0    Yes
  E134264              JUNCTION              1.13      0.66       0.0    Yes
  E134265              JUNCTION              1.33      0.48       0.0    Yes
  E134266              JUNCTION              1.55      0.90       0.0    Yes
  E134267              JUNCTION              1.63      0.72       0.0    Yes
  E134268              JUNCTION              1.60      1.10       0.0    Yes
  E134270              JUNCTION              1.68      1.01       0.0    Yes
  E134274              JUNCTION              1.22      1.13       0.0    Yes
  E134275              JUNCTION              1.27      1.13       0.0    Yes
  E134278              JUNCTION              0.18      1.76       0.0    Yes
  E134280              JUNCTION              0.14      2.04       0.0    Yes
  E134281              JUNCTION              0.79      1.30       0.0    Yes
  E134284              JUNCTION              0.48      1.65       0.0    Yes
  E134285              JUNCTION              0.56      1.42       0.0    Yes
  E134286              JUNCTION              0.66      1.65       0.0    Yes
  E134287              JUNCTION              0.76      1.38       0.0    Yes
  E134288              JUNCTION              0.84      1.43       0.0    Yes
  E134289              JUNCTION              1.09      1.50       0.0    Yes
  E134290              JUNCTION              1.21      1.38       0.0    Yes
  E134291              JUNCTION              1.31      1.39       0.0    Yes
  E135000              JUNCTION              1.23      0.88       0.0    Yes
  E135220              JUNCTION              0.76      1.32       0.0    Yes
  E139000              JUNCTION              0.76      1.08       0.0    Yes
  E139001              JUNCTION              0.03      1.80       0.0    Yes
  E14160               JUNCTION              1.24      1.16       0.0    Yes
  E143250              JUNCTION             -1.08      1.52       0.0    Yes
  E143254              JUNCTION             -1.07      1.99       0.0    Yes
  E143257              JUNCTION             -0.19      1.29       0.0    Yes
  E143258              JUNCTION              0.04      0.97       0.0    Yes
  E143267              JUNCTION             -1.12      2.22       0.0    Yes
  E143268              JUNCTION              0.01      0.92       0.0    Yes
  E143269              JUNCTION             -0.91      2.11       0.0    Yes
  E143270              JUNCTION              0.12      1.03       0.0    Yes
  E143274              JUNCTION             -0.91      2.00       0.0    Yes
  E143275              JUNCTION             -0.79      1.89       0.0    Yes
  E143276              JUNCTION             -0.49      1.48       0.0    Yes
  E143277              JUNCTION             -0.32      1.72       0.0    Yes
  E143278              JUNCTION              0.20      1.00       0.0    Yes
  E143279              JUNCTION             -0.90      2.38       0.0
  E143280              JUNCTION             -1.06      2.63       0.0    Yes
  E143281              JUNCTION             -0.56      1.93       0.0    Yes
  E143282              JUNCTION              0.40      1.31       0.0    Yes
  E143283              JUNCTION              0.95      0.62       0.0    Yes
  E143284              JUNCTION              0.53      1.47       0.0    Yes
  E143285              JUNCTION              0.41      1.61       0.0    Yes
  E143286              JUNCTION              0.65      1.48       0.0    Yes
  E143287              JUNCTION              1.03      0.93       0.0    Yes
  E143288              JUNCTION              0.95      1.41       0.0    Yes
  E143289              JUNCTION              1.37      0.87       0.0    Yes
  E143290              JUNCTION              1.49      1.32       0.0    Yes
  E143291              JUNCTION              1.39      0.72       0.0    Yes
  E143292              JUNCTION              1.52      0.60       0.0    Yes
  E143293              JUNCTION              1.38      0.62       0.0    Yes
  E143295              JUNCTION              1.19      0.86       0.0    Yes
  E143297              JUNCTION              1.23      0.87       0.0    Yes
  E143299              JUNCTION              1.07      1.64       0.0    Yes
  E143300              JUNCTION              1.04      1.63       0.0    Yes
  E143301              JUNCTION              1.07      0.76       0.0    Yes
  E143302              JUNCTION              1.46      1.41       0.0    Yes
  E143303              JUNCTION              1.53      1.28       0.0    Yes
  E143304              JUNCTION              1.23      1.06       0.0    Yes
  E143305              JUNCTION              1.40      1.29       0.0    Yes
  E143306              JUNCTION              1.49      1.01       0.0    Yes
  E143307              JUNCTION              1.30      0.65       0.0    Yes
  E143308              JUNCTION              1.36      0.60       0.0    Yes
  E143309              JUNCTION             -1.21      3.61       0.0    Yes
  E143310              JUNCTION             -0.76      2.84       0.0    Yes
  E143311              JUNCTION              0.90      0.80       0.0    Yes
  E143312              JUNCTION             -0.86      2.86       0.0    Yes
  E143313              JUNCTION             -0.77      3.06       0.0    Yes
  E143315              JUNCTION              0.37      1.48       0.0    Yes
  E143316              JUNCTION              0.44      1.46       0.0    Yes
  E143318              JUNCTION              0.44      1.37       0.0    Yes
  E143319              JUNCTION              0.23      1.32       0.0    Yes
  E143320              JUNCTION              0.27      1.37       0.0    Yes
  E143321              JUNCTION              0.44      1.32       0.0    Yes
  E143322              JUNCTION              0.71      0.87       0.0    Yes
  E143323              JUNCTION             -0.58      1.42       0.0    Yes
  E143324              JUNCTION             -0.44      1.26       0.0    Yes
  E143325              JUNCTION             -0.57      1.39       0.0    Yes
  E143326              JUNCTION             -0.44      1.31       0.0
  E143327              JUNCTION             -0.57      1.37       0.0    Yes
  E143329              JUNCTION              0.29      0.72       0.0    Yes
  E143330              JUNCTION              0.47      0.79       0.0    Yes
  E143332              JUNCTION             -0.06      0.93       0.0    Yes
  E143336              JUNCTION             -0.53      1.54       0.0    Yes
  E143338              JUNCTION              1.67      0.70       0.0    Yes
  E143339              JUNCTION             -0.41      1.65       0.0    Yes
  E143340              JUNCTION             -0.28      1.58       0.0    Yes
  E143348              JUNCTION              0.03      0.99       0.0    Yes
  E143349              JUNCTION             -0.52      1.80       0.0    Yes
  E143350              JUNCTION              0.55      0.69       0.0    Yes
  E143351              JUNCTION             -0.51      1.82       0.0    Yes
  E143352              JUNCTION             -0.42      1.76       0.0    Yes
  E143353              JUNCTION              0.37      0.80       0.0    Yes
  E143354              JUNCTION              0.77      0.86       0.0    Yes
  E143355              JUNCTION             -0.31      1.95       0.0    Yes
  E143356              JUNCTION              0.36      1.18       0.0    Yes
  E143357              JUNCTION              0.30      1.29       0.0    Yes
  E143358              JUNCTION              0.59      0.94       0.0    Yes
  E143359              JUNCTION             -0.50      1.82       0.0    Yes
  E143360              JUNCTION              0.34      0.82       0.0    Yes
  E143361              JUNCTION             -0.50      1.81       0.0
  E143362              JUNCTION              0.21      0.89       0.0    Yes
  E143363              JUNCTION             -0.49      1.90       0.0    Yes
  E143364              JUNCTION              0.31      0.96       0.0    Yes
  E143365              JUNCTION             -0.35      1.67       0.0    Yes
  E143366              JUNCTION             -0.45      2.09       0.0    Yes
  E143367              JUNCTION              0.45      0.88       0.0    Yes
  E143368              JUNCTION             -0.37      2.00       0.0    Yes
  E143369              JUNCTION             -0.36      1.95       0.0    Yes
  E143370              JUNCTION             -0.36      1.69       0.0    Yes
  E143371              JUNCTION              0.13      1.05       0.0    Yes
  E143372              JUNCTION              0.27      0.86       0.0    Yes
  E143373              JUNCTION             -0.37      2.07       0.0    Yes
  E143374              JUNCTION              0.34      1.38       0.0    Yes
  E143375              JUNCTION              0.59      1.17       0.0    Yes
  E143376              JUNCTION             -0.15      1.83       0.0
  E143377              JUNCTION             -0.23      2.11       0.0    Yes
  E143378              JUNCTION             -0.03      1.89       0.0    Yes
  E143379              JUNCTION             -0.20      2.04       0.0    Yes
  E143380              JUNCTION              0.58      1.14       0.0    Yes
  E143381              JUNCTION             -0.19      2.06       0.0    Yes
  E143382              JUNCTION              0.27      1.46       0.0    Yes
  E143383              JUNCTION              0.76      0.91       0.0    Yes
  E143384              JUNCTION              0.85      0.92       0.0    Yes
  E143386              JUNCTION             -0.34      1.89       0.0    Yes
  E143387              JUNCTION              0.27      1.25       0.0    Yes
  E143389              JUNCTION              0.42      0.92       0.0    Yes
  E143390              JUNCTION              0.49      0.94       0.0    Yes
  E143391              JUNCTION             -0.33      1.86       0.0    Yes
  E143392              JUNCTION              0.30      1.10       0.0    Yes
  E143393              JUNCTION             -0.29      1.80       0.0    Yes
  E143419              JUNCTION             -0.51      1.85       0.0    Yes
  E14357               JUNCTION              0.84      1.62       0.0    Yes
  E143701              JUNCTION              0.17      0.72       0.0    Yes
  E143704              JUNCTION             -0.35      1.35       0.0    Yes
  E143705              JUNCTION              0.13      1.08       0.0    Yes
  E143706              JUNCTION              0.37      0.85       0.0    Yes
  E143707              JUNCTION             -0.23      1.40       0.0    Yes
  E143708              JUNCTION              0.27      0.96       0.0    Yes
  E143710              JUNCTION             -1.08      2.90       0.0    Yes
  E143711              JUNCTION              0.30      0.51       0.0    Yes
  E143713              JUNCTION             -1.08      2.21       0.0    Yes
  E1437144             JUNCTION             -0.61      1.67       0.0    Yes
  E1437145             JUNCTION              0.55      0.58       0.0    Yes
  E1437146             JUNCTION              0.66      0.48       0.0    Yes
  E1437147             JUNCTION              0.18      0.91       0.0    Yes
  E1437148             JUNCTION              0.21      0.76       0.0    Yes
  E1437149             JUNCTION              0.24      0.87       0.0    Yes
  E143715              JUNCTION             -0.30      1.42       0.0    Yes
  E1437150             JUNCTION             -1.48      2.95       0.0    Yes
  E143716              JUNCTION              0.27      0.70       0.0    Yes
  E1437162             JUNCTION             -1.80      3.20       0.0    Yes
  E1437164             JUNCTION              0.35      0.85       0.0    Yes
  E1437165             JUNCTION              0.30      0.74       0.0    Yes
  E1437169             JUNCTION              1.28      1.15       0.0    Yes
  E143717              JUNCTION             -1.07      2.24       0.0    Yes
  E1437170             JUNCTION              1.34      1.15       0.0    Yes
  E1437171             JUNCTION              0.63      1.01       0.0    Yes
  E1437172             JUNCTION              0.48      1.37       0.0    Yes
  E1437173             JUNCTION             -0.03      1.88       0.0    Yes
  E1437174             JUNCTION             -0.02      1.96       0.0    Yes
  E1437175             JUNCTION              0.52      1.16       0.0    Yes
  E1437176             JUNCTION              0.23      1.39       0.0    Yes
  E1437177             JUNCTION              0.34      1.22       0.0    Yes
  E1437178             JUNCTION              0.79      0.94       0.0    Yes
  E1437179             JUNCTION             -0.39      1.76       0.0
  E143718              JUNCTION             -0.38      1.46       0.0    Yes
  E1437180             JUNCTION              0.58      1.17       0.0    Yes
  E1437181             JUNCTION              1.98      2.10       0.0    Yes
  E1437182             JUNCTION              2.59      1.80       0.0    Yes
  E1437183             JUNCTION              1.23      0.68       0.0    Yes
  E1437186             JUNCTION              0.61      1.17       0.0    Yes
  E1437187             JUNCTION              0.70      0.93       0.0    Yes
  E143719              JUNCTION              0.43      0.52       0.0    Yes
  E1437190             JUNCTION              0.16      1.19       0.0    Yes
  E1437191             JUNCTION              0.24      1.15       0.0    Yes
  E1437192             JUNCTION             -0.30      1.70       0.0    Yes
  E1437193             JUNCTION             -0.30      1.64       0.0    Yes
  E1437194             JUNCTION             -0.24      1.73       0.0    Yes
  E1437195             JUNCTION              0.22      1.10       0.0    Yes
  E1437196             JUNCTION              1.13      0.67       0.0    Yes
  E143720              JUNCTION             -0.39      1.71       0.0    Yes
  E143722              JUNCTION             -0.57      1.19       0.0    Yes
  E143723              JUNCTION             -1.11      1.93       0.0    Yes
  E143724              JUNCTION             -0.62      1.31       0.0    Yes
  E143725              JUNCTION             -0.58      1.30       0.0    Yes
  E143730              JUNCTION             -1.07      2.06       0.0    Yes
  E143732              JUNCTION             -0.59      1.47       0.0    Yes
  E143733              JUNCTION             -1.06      2.03       0.0    Yes
  E143736              JUNCTION             -1.05      2.01       0.0    Yes
  E143737              JUNCTION             -0.12      1.03       0.0    Yes
  E143738              JUNCTION             -0.01      0.92       0.0
  E143739              JUNCTION              0.29      0.73       0.0    Yes
  E143740              JUNCTION             -0.11      1.02       0.0
  E143741              JUNCTION              0.04      1.30       0.0    Yes
  E143742              JUNCTION             -1.04      1.97       0.0    Yes
  E143743              JUNCTION             -0.26      1.22       0.0
  E143746              JUNCTION             -0.94      1.91       0.0    Yes
  E143747              JUNCTION              0.27      0.74       0.0    Yes
  E143749              JUNCTION             -0.84      1.88       0.0    Yes
  E143750              JUNCTION              0.27      2.30       0.0    Yes
  E143751              JUNCTION              1.75      0.94       0.0    Yes
  E143752              JUNCTION              0.28      2.34       0.0    Yes
  E143754              JUNCTION              1.17      1.47       0.0    Yes
  E143755              JUNCTION              0.38      2.12       0.0    Yes
  E143756              JUNCTION              1.58      0.99       0.0    Yes
  E143757              JUNCTION              0.49      1.78       0.0    Yes
  E143758              JUNCTION              0.80      1.48       0.0    Yes
  E143759              JUNCTION              0.53      1.53       0.0    Yes
  E143760              JUNCTION              0.56      1.67       0.0    Yes
  E143761              JUNCTION              0.50      1.56       0.0    Yes
  E143762              JUNCTION              0.54      1.75       0.0    Yes
  E143763              JUNCTION              0.57      1.75       0.0    Yes
  E143775              JUNCTION             -0.91      2.01       0.0    Yes
  E143776              JUNCTION              0.04      1.08       0.0    Yes
  E143777              JUNCTION             -0.87      2.00       0.0    Yes
  E143778              JUNCTION             -0.87      1.98       0.0    Yes
  E143779              JUNCTION             -0.86      1.96       0.0    Yes
  E143782              JUNCTION             -0.83      1.94       0.0    Yes
  E143783              JUNCTION             -0.03      1.07       0.0    Yes
  E143784              JUNCTION              0.13      1.00       0.0    Yes
  E143786              JUNCTION             -0.78      1.91       0.0    Yes
  E143787              JUNCTION              0.56      0.57       0.0
  E143788              JUNCTION             -0.74      1.99       0.0    Yes
  E143789              JUNCTION             -0.10      1.15       0.0    Yes
  E143790              JUNCTION              0.03      1.25       0.0    Yes
  E143791              JUNCTION              0.03      1.32       0.0    Yes
  E143792              JUNCTION             -0.64      2.12       0.0    Yes
  E143794              JUNCTION              0.76      0.64       0.0    Yes
  E143795              JUNCTION              1.56      0.72       0.0    Yes
  E143796              JUNCTION              1.60      0.89       0.0    Yes
  E143797              JUNCTION              1.58      0.98       0.0    Yes
  E143798              JUNCTION              1.56      0.86       0.0    Yes
  E143799              JUNCTION              1.79      0.75       0.0    Yes
  E143800              JUNCTION              1.80      0.88       0.0    Yes
  E143801              JUNCTION             -0.64      2.14       0.0    Yes
  E143802              JUNCTION              0.51      0.99       0.0    Yes
  E143803              JUNCTION             -0.64      2.26       0.0    Yes
  E143806              JUNCTION              0.54      0.85       0.0    Yes
  E143807              JUNCTION             -0.64      2.21       0.0    Yes
  E143808              JUNCTION              0.76      0.76       0.0    Yes
  E143809              JUNCTION              0.85      0.84       0.0    Yes
  E143810              JUNCTION              0.49      0.89       0.0    Yes
  E143811              JUNCTION             -0.64      2.23       0.0    Yes
  E143812              JUNCTION             -0.17      1.71       0.0    Yes
  E143813              JUNCTION              0.61      0.87       0.0    Yes
  E143814              JUNCTION              0.79      0.77       0.0    Yes
  E143815              JUNCTION              0.50      1.03       0.0    Yes
  E143816              JUNCTION             -0.63      2.12       0.0    Yes
  E143817              JUNCTION              0.56      0.89       0.0    Yes
  E143818              JUNCTION             -0.62      2.43       0.0    Yes
  E143820              JUNCTION              0.13      1.12       0.0
  E143821              JUNCTION             -0.51      1.86       0.0    Yes
  E143823              JUNCTION              1.16      1.15       0.0    Yes
  E143824              JUNCTION              1.22      1.26       0.0    Yes
  E143825              JUNCTION              1.28      1.39       0.0    Yes
  E143829              JUNCTION              1.66      1.25       0.0    Yes
  E143831              JUNCTION              2.17      0.75       0.0
  E143832              JUNCTION              2.02      1.11       0.0    Yes
  E143833              JUNCTION              2.05      0.91       0.0    Yes
  E143834              JUNCTION             -0.39      1.55       0.0    Yes
  E143839              JUNCTION             -0.48      1.79       0.0    Yes
  E143840              JUNCTION             -0.48      2.00       0.0    Yes
  E143841              JUNCTION             -0.22      1.49       0.0    Yes
  E143842              JUNCTION              0.77      0.86       0.0    Yes
  E143846              JUNCTION             -0.34      2.63       0.0    Yes
  E143847              JUNCTION              1.31      1.60       0.0    Yes
  E143848              JUNCTION              1.37      1.50       0.0    Yes
  E143849              JUNCTION             -0.25      3.16       0.0    Yes
  E143850              JUNCTION              1.41      1.48       0.0    Yes
  E143851              JUNCTION              1.06      1.43       0.0    Yes
  E143852              JUNCTION             -0.13      2.75       0.0    Yes
  E143854              JUNCTION              1.03      1.74       0.0    Yes
  E143855              JUNCTION              1.25      1.57       0.0    Yes
  E143856              JUNCTION              1.16      1.58       0.0    Yes
  E143857              JUNCTION              1.24      1.64       0.0    Yes
  E143860              JUNCTION             -0.07      2.68       0.0    Yes
  E143861              JUNCTION              1.41      1.35       0.0    Yes
  E143862              JUNCTION              1.36      1.09       0.0    Yes
  E143863              JUNCTION              0.20      2.13       0.0    Yes
  E143871              JUNCTION              1.11      1.64       0.0    Yes
  E143872              JUNCTION              1.17      1.23       0.0    Yes
  E143880              JUNCTION              0.31      1.63       0.0
  E143881              JUNCTION              0.57      1.53       0.0    Yes
  E143883              JUNCTION              0.87      1.41       0.0    Yes
  E143884              JUNCTION              1.11      1.34       0.0    Yes
  E143885              JUNCTION              1.19      1.15       0.0    Yes
  E143886              JUNCTION              0.29      1.75       0.0    Yes
  E143887              JUNCTION              0.70      1.40       0.0    Yes
  E143888              JUNCTION              0.42      1.59       0.0    Yes
  E143889              JUNCTION              0.48      1.86       0.0    Yes
  E143961              JUNCTION             -1.07      2.35       0.0    Yes
  E143962              JUNCTION             -0.37      1.04       0.0    Yes
  E143963              JUNCTION             -1.07      2.48       0.0    Yes
  E143964              JUNCTION             -0.12      1.07       0.0    Yes
  E143971              JUNCTION             -1.12      2.52       0.0    Yes
  E143972              JUNCTION             -0.41      1.51       0.0    Yes
  E143973              JUNCTION             -0.35      1.30       0.0    Yes
  E143974              JUNCTION              0.02      1.05       0.0    Yes
  E143975              JUNCTION             -1.17      3.68       0.0
  E143976              JUNCTION              1.31      1.38       0.0    Yes
  E143977              JUNCTION              0.20      2.10       0.0    Yes
  E143978              JUNCTION              1.28      0.77       0.0    Yes
  E143979              JUNCTION              0.32      1.39       0.0    Yes
  E143980              JUNCTION              0.79      0.35       0.0    Yes
  E143981              JUNCTION              0.87      0.63       0.0    Yes
  E143986              JUNCTION             -0.91      3.00       0.0    Yes
  E143987              JUNCTION             -0.77      3.07       0.0
  E143988              JUNCTION             -0.86      2.70       0.0    Yes
  E143989              JUNCTION             -0.69      2.51       0.0    Yes
  E143991              JUNCTION             -0.40      2.22       0.0    Yes
  E143992              JUNCTION              0.14      1.42       0.0    Yes
  E143993              JUNCTION              0.25      1.10       0.0    Yes
  E143994              JUNCTION              0.73      0.72       0.0    Yes
  E143995              JUNCTION              0.65      1.28       0.0    Yes
  E143996              JUNCTION              0.94      0.73       0.0    Yes
  E143997              JUNCTION              0.38      1.18       0.0    Yes
  E143998              JUNCTION              1.04      0.56       0.0    Yes
  E143999              JUNCTION              0.42      0.92       0.0    Yes
  E144000              JUNCTION              0.52      0.97       0.0    Yes
  E144001              JUNCTION              0.49      0.99       0.0    Yes
  E144003              JUNCTION              0.58      0.83       0.0    Yes
  E144004              JUNCTION             -0.78      1.98       0.0    Yes
  E144005              JUNCTION              0.18      0.70       0.0    Yes
  E144006              JUNCTION              0.46      1.08       0.0    Yes
  E144007              JUNCTION             -0.76      1.67       0.0    Yes
  E144008              JUNCTION             -0.16      0.92       0.0    Yes
  E144009              JUNCTION             -0.76      1.71       0.0
  E144010              JUNCTION             -0.04      0.73       0.0    Yes
  E144011              JUNCTION             -0.76      1.65       0.0    Yes
  E144012              JUNCTION             -0.35      1.14       0.0    Yes
  E144013              JUNCTION             -0.12      1.12       0.0    Yes
  E144014              JUNCTION             -0.01      1.24       0.0    Yes
  E144015              JUNCTION              0.15      0.98       0.0    Yes
  E144016              JUNCTION              0.40      0.79       0.0    Yes
  E144017              JUNCTION              0.28      1.38       0.0    Yes
  E144018              JUNCTION              0.93      0.86       0.0    Yes
  E144019              JUNCTION              0.36      1.46       0.0    Yes
  E144020              JUNCTION              0.39      1.30       0.0    Yes
  E144021              JUNCTION              0.49      1.12       0.0    Yes
  E144022              JUNCTION              0.63      1.05       0.0    Yes
  E144023              JUNCTION              0.88      0.98       0.0    Yes
  E144024              JUNCTION              1.06      1.41       0.0    Yes
  E144025              JUNCTION              1.29      1.00       0.0    Yes
  E144026              JUNCTION              1.54      0.44       0.0    Yes
  E144027              JUNCTION              1.42      1.18       0.0    Yes
  E144028              JUNCTION              1.68      0.99       0.0    Yes
  E144029              JUNCTION              1.61      1.38       0.0    Yes
  E144032              JUNCTION             -0.53      1.56       0.0    Yes
  E144033              JUNCTION              0.17      0.82       0.0    Yes
  E144034              JUNCTION              1.16      0.59       0.0    Yes
  E144050              JUNCTION             -0.53      2.33       0.0    Yes
  E144252              JUNCTION              1.45      0.87       0.0    Yes
  E144272              JUNCTION              0.04      2.21       0.0    Yes
  E144277              JUNCTION              0.78      1.29       0.0    Yes
  E144282              JUNCTION              1.58      0.51       0.0    Yes
  E144283              JUNCTION              1.02      1.31       0.0    Yes
  E145006              JUNCTION              1.23      0.85       0.0    Yes
  E145007              JUNCTION              1.34      1.66       0.0    Yes
  E145009              JUNCTION              1.65      0.78       0.0    Yes
  E145010              JUNCTION             -0.70      2.18       0.0    Yes
  E145011              JUNCTION              0.97      1.52       0.0    Yes
  E145050              JUNCTION             -1.07      2.40       0.0    Yes
  E145051              JUNCTION              0.04      1.01       0.0    Yes
  E145060              JUNCTION             -1.08      2.32       0.0    Yes
  E145061              JUNCTION             -0.81      2.05       0.0    Yes
  E145062              JUNCTION             -0.77      1.76       0.0    Yes
  E145063              JUNCTION             -0.77      1.82       0.0    Yes
  E145064              JUNCTION             -0.45      1.46       0.0    Yes
  E145066              JUNCTION             -0.06      1.09       0.0    Yes
  E145067              JUNCTION              0.72      0.41       0.0    Yes
  E145068              JUNCTION              0.13      0.91       0.0    Yes
  E145069              JUNCTION              0.85      0.37       0.0    Yes
  E145300              JUNCTION             -0.83      1.99       0.0    Yes
  E145301              JUNCTION              0.46      0.91       0.0    Yes
  E145302              JUNCTION              0.49      0.74       0.0    Yes
  E145303              JUNCTION              0.61      1.29       0.0    Yes
  E145304              JUNCTION              0.76      1.44       0.0    Yes
  E145305              JUNCTION              0.67      0.92       0.0    Yes
  E145307              JUNCTION              1.07      1.00       0.0    Yes
  E145308              JUNCTION              1.16      1.27       0.0    Yes
  E145400              JUNCTION              0.91      0.34       0.0    Yes
  E146001              JUNCTION              0.58      1.42       0.0    Yes
  E146004              JUNCTION             -0.52      3.42       0.0    Yes
  E147001              JUNCTION             -0.01      1.42       0.0    Yes
  E147007              JUNCTION             -1.08      1.68       0.0    Yes
  E147008              JUNCTION             -1.74      3.07       0.0    Yes
  E147009              JUNCTION             -1.61      3.07       0.0    Yes
  E147013              JUNCTION             -1.62      3.51       0.0    Yes
  E147014              JUNCTION             -1.47      2.72       0.0    Yes
  E147137              JUNCTION             -0.15      1.82       0.0    Yes
  E1520532             JUNCTION              1.54      0.89       0.0    Yes
  E1520533             JUNCTION              1.60      0.90       0.0    Yes
  E1520534             JUNCTION              1.76      0.90       0.0    Yes
  E1520535             JUNCTION              1.78      0.68       0.0    Yes
  E1520536             JUNCTION              1.89      0.55       0.0    Yes
  E1520537             JUNCTION              1.95      0.60       0.0    Yes
  E153766              JUNCTION              1.34      1.17       0.0    Yes
  E153767              JUNCTION              1.21      1.34       0.0    Yes
  E153768              JUNCTION              1.36      1.19       0.0    Yes
  E153769              JUNCTION              1.43      1.04       0.0    Yes
  E153770              JUNCTION              1.39      1.12       0.0    Yes
  E153771              JUNCTION              1.76      0.86       0.0    Yes
  E153868              JUNCTION              1.38      1.89       0.0    Yes
  E153869              JUNCTION              1.53      1.19       0.0    Yes
  E153870              JUNCTION              1.05      1.84       0.0    Yes
  E153873              JUNCTION              1.43      2.02       0.0    Yes
  E153874              JUNCTION              1.94      1.10       0.0    Yes
  E153875              JUNCTION              1.79      1.07       0.0    Yes
  E153876              JUNCTION              1.73      1.29       0.0    Yes
  E153877              JUNCTION              1.98      1.13       0.0    Yes
  F13002000            JUNCTION              0.21      1.63       0.0    Yes
  F1302001             JUNCTION              0.36      1.61       0.0    Yes
  F1302002             JUNCTION              0.61      1.34       0.0    Yes
  F1306011             JUNCTION              0.82      0.96       0.0    Yes
  F1306012             JUNCTION              0.99      1.25       0.0    Yes
  F1306013             JUNCTION              2.03      0.92       0.0    Yes
  F1306014             JUNCTION              1.41      0.72       0.0    Yes
  F1306015             JUNCTION              1.52      1.01       0.0    Yes
  F1306016             JUNCTION              1.68      1.21       0.0    Yes
  F1306017             JUNCTION              1.40      1.55       0.0    Yes
  F1306018             JUNCTION              1.98      1.04       0.0    Yes
  F1306019             JUNCTION              1.95      1.03       0.0    Yes
  F1306020             JUNCTION              1.61      1.64       0.0    Yes
  F1306021             JUNCTION              1.79      1.38       0.0    Yes
  F1306022             JUNCTION              1.84      1.52       0.0    Yes
  F1306023             JUNCTION              2.09      1.17       0.0    Yes
  F1306024             JUNCTION              2.07      1.29       0.0    Yes
  F1306025             JUNCTION              2.09      1.19       0.0    Yes
  F1306026             JUNCTION              2.22      1.12       0.0    Yes
  F1306027             JUNCTION              2.10      1.31       0.0    Yes
  F1306028             JUNCTION              2.42      1.17       0.0    Yes
  F1306029             JUNCTION              2.38      0.99       0.0    Yes
  F1306030             JUNCTION              2.40      0.64       0.0    Yes
  F1306031             JUNCTION              2.43      0.99       0.0    Yes
  F1306032             JUNCTION              2.48      0.79       0.0    Yes
  F1306033             JUNCTION              0.80      2.74       0.0    Yes
  F1306034             JUNCTION              1.71      1.54       0.0    Yes
  F1306035             JUNCTION              1.95      1.54       0.0    Yes
  F1306036             JUNCTION              2.08      1.49       0.0    Yes
  F1306037             JUNCTION              2.31      1.10       0.0    Yes
  F1306038             JUNCTION              2.44      1.19       0.0    Yes
  F1306039             JUNCTION              2.60      1.24       0.0    Yes
  F1306040             JUNCTION              2.64      1.19       0.0    Yes
  F1306041             JUNCTION              0.97      2.75       0.0    Yes
  F1306042             JUNCTION              1.29      1.37       0.0    Yes
  F1306043             JUNCTION              1.35      1.61       0.0    Yes
  F1306044             JUNCTION              1.46      1.41       0.0    Yes
  F1306045             JUNCTION              1.74      1.79       0.0    Yes
  F1306046             JUNCTION              2.23      1.02       0.0    Yes
  F13250               JUNCTION              0.12      2.90       0.0    Yes
  F13251               JUNCTION              0.29      2.82       0.0    Yes
  F13252               JUNCTION              0.63      2.35       0.0    Yes
  F13253               JUNCTION              0.72      1.97       0.0    Yes
  F13254               JUNCTION              1.36      1.39       0.0    Yes
  F13255               JUNCTION              0.80      1.96       0.0    Yes
  F13256               JUNCTION              0.85      1.89       0.0    Yes
  F13257               JUNCTION              1.03      1.50       0.0    Yes
  F13258               JUNCTION              1.59      1.21       0.0    Yes
  F13259               JUNCTION              0.46      2.22       0.0    Yes
  F13260               JUNCTION              1.17      1.52       0.0    Yes
  F13261               JUNCTION              0.47      2.07       0.0    Yes
  F13262               JUNCTION              0.51      2.15       0.0    Yes
  F13263               JUNCTION              0.51      2.43       0.0    Yes
  F13264               JUNCTION              0.63      2.69       0.0    Yes
  F132641              JUNCTION              0.91      2.26       0.0    Yes
  F13265               JUNCTION              1.78      1.38       0.0    Yes
  F13269               JUNCTION              0.75      2.52       0.0    Yes
  F132690              JUNCTION              2.89      0.58       0.0    Yes
  F13270               JUNCTION              0.71      2.48       0.0    Yes
  F13271               JUNCTION              0.76      2.14       0.0    Yes
  F132710              JUNCTION              2.51      0.58       0.0    Yes
  F13272               JUNCTION              0.83      1.94       0.0    Yes
  F13273               JUNCTION              1.45      1.84       0.0    Yes
  F13274               JUNCTION              1.46      2.02       0.0    Yes
  F13275               JUNCTION              2.32      1.02       0.0    Yes
  F13276               JUNCTION              2.34      1.00       0.0    Yes
  F13277               JUNCTION              1.54      1.95       0.0    Yes
  F13278               JUNCTION              1.78      1.52       0.0    Yes
  F13279               JUNCTION              1.64      1.55       0.0    Yes
  F13280               JUNCTION              1.60      1.64       0.0    Yes
  F13281               JUNCTION              1.66      1.69       0.0    Yes
  F13282               JUNCTION              1.79      1.67       0.0    Yes
  F13283               JUNCTION              2.67      0.78       0.0    Yes
  F13283.01            JUNCTION              2.71      0.81       0.0    Yes
  F13284               JUNCTION              1.97      1.46       0.0    Yes
  F13285               JUNCTION              2.61      0.56       0.0    Yes
  F13285.01            JUNCTION              2.77      0.54       0.0    Yes
  F13286               JUNCTION              2.12      1.07       0.0    Yes
  F13287               JUNCTION              2.03      1.45       0.0    Yes
  F13288               JUNCTION              2.63      0.65       0.0    Yes
  F13289               JUNCTION              2.27      1.09       0.0    Yes
  F13290               JUNCTION              1.75      1.11       0.0    Yes
  F13292               JUNCTION              1.80      1.33       0.0    Yes
  F13293               JUNCTION              1.90      0.98       0.0    Yes
  F13294               JUNCTION              2.09      0.73       0.0    Yes
  F13295               JUNCTION              1.85      1.34       0.0    Yes
  F13296               JUNCTION              1.94      1.30       0.0    Yes
  F13297               JUNCTION              2.11      1.17       0.0    Yes
  F13298               JUNCTION              2.19      1.37       0.0    Yes
  F13299               JUNCTION              2.29      1.78       0.0    Yes
  F13300               JUNCTION              2.32      1.41       0.0    Yes
  F133422              JUNCTION              0.35      1.37       0.0    Yes
  F133427              JUNCTION              0.52      1.00       0.0    Yes
  F133428              JUNCTION              0.19      1.60       0.0    Yes
  F133429              JUNCTION              0.30      1.54       0.0    Yes
  F133430              JUNCTION              0.46      1.34       0.0    Yes
[...]
  ----------------------------------------------------------------
   01/01/2000 00:00:10      0.000     0.000     0.000     0.000
   01/01/2000 00:00:20      0.000     0.000     0.000     0.000
   01/01/2000 00:00:30      0.000     0.000     0.000     0.000
   01/01/2000 00:00:40      0.000     0.000     0.000     0.000
   01/01/2000 00:00:50      0.000     0.000     0.000     0.000
   01/01/2000 00:01:00      0.000     0.000     0.000     0.000
   01/01/2000 00:01:10      0.000     0.000     0.000     0.000
   01/01/2000 00:01:20      0.000     0.000     0.000     0.000
   01/01/2000 00:01:30      0.000     0.000     0.000     0.000
   01/01/2000 00:01:40      0.000     0.000     0.000     0.000
   01/01/2000 00:01:50      0.000     0.000     0.001     0.000
  
  
  <<< Link 984 >>>
  --------------------------------------------------------------------------
                             Flow  Velocity     Depth  Capacity/
  Date        Time            CMS     m/sec    meters   Setting 
  ----------------------------------------------------------------
   01/01/2000 00:00:10      0.000     0.000     0.000     0.000
   01/01/2000 00:00:20      0.000     0.000     0.000     0.000
   01/01/2000 00:00:30      0.000     0.000     0.000     0.000
   01/01/2000 00:00:40      0.000     0.000     0.000     0.000
   01/01/2000 00:00:50      0.000     0.000     0.000     0.000
   01/01/2000 00:01:00      0.000     0.000     0.000     0.000
   01/01/2000 00:01:10      0.000     0.000     0.000     0.000
   01/01/2000 00:01:20      0.000     0.000     0.000     0.000
   01/01/2000 00:01:30      0.000     0.000     0.000     0.000
   01/01/2000 00:01:40      0.000     0.000     0.001     0.000
   01/01/2000 00:01:50      0.000     0.000     0.001     0.000
  
  
  <<< Link 985 >>>
  --------------------------------------------------------------------------
                             Flow  Velocity     Depth  Capacity/
  Date        Time            CMS     m/sec    meters   Setting 
  ----------------------------------------------------------------
   01/01/2000 00:00:10      0.000     0.000     0.000     0.000
   01/01/2000 00:00:20      0.000     0.000     0.000     0.000
   01/01/2000 00:00:30      0.000     0.000     0.000     0.000
   01/01/2000 00:00:40      0.000     0.000     0.000     0.000
   01/01/2000 00:00:50      0.000     0.000     0.000     0.000
   01/01/2000 00:01:00      0.000     0.000     0.000     0.000
   01/01/2000 00:01:10      0.000     0.000     0.000     0.000
   01/01/2000 00:01:20      0.000     0.000     0.000     0.000
   01/01/2000 00:01:30      0.000     0.000     0.000     0.000
   01/01/2000 00:01:40      0.000     0.000     0.000     0.000
   01/01/2000 00:01:50      0.000     0.000     0.000     0.000
  
  
  <<< Link 986 >>>
  --------------------------------------------------------------------------
                             Flow  Velocity     Depth  Capacity/
  Date        Time            CMS     m/sec    meters   Setting 
  ----------------------------------------------------------------
   01/01/2000 00:00:10      0.000     0.000     0.000     0.000
   01/01/2000 00:00:20      0.000     0.000     0.000     0.000
   01/01/2000 00:00:30      0.000     0.000     0.000     0.000
   01/01/2000 00:00:40      0.000     0.000     0.000     0.000
   01/01/2000 00:00:50      0.000     0.000     0.000     0.000
   01/01/2000 00:01:00      0.000     0.000     0.000     0.000
   01/01/2000 00:01:10      0.000     0.000     0.000     0.000
   01/01/2000 00:01:20      0.000     0.000     0.000     0.000
   01/01/2000 00:01:30      0.000     0.000     0.000     0.000
   01/01/2000 00:01:40      0.000     0.000     0.000     0.000
   01/01/2000 00:01:50      0.000     0.000     0.000     0.000
  
  
  <<< Link 987 >>>
  --------------------------------------------------------------------------
                             Flow  Velocity     Depth  Capacity/
  Date        Time            CMS     m/sec    meters   Setting 
  ----------------------------------------------------------------
   01/01/2000 00:00:10      0.000     0.000     0.000     0.000
   01/01/2000 00:00:20      0.000     0.000     0.000     0.000
   01/01/2000 00:00:30      0.000     0.000     0.000     0.000
   01/01/2000 00:00:40      0.000     0.000     0.000     0.000
   01/01/2000 00:00:50      0.000     0.000     0.000     0.000
   01/01/2000 00:01:00      0.000     0.000     0.000     0.000
   01/01/2000 00:01:10      0.000     0.000     0.000     0.000
   01/01/2000 00:01:20      0.000     0.000     0.000     0.000
   01/01/2000 00:01:30      0.000     0.000     0.000     0.000
   01/01/2000 00:01:40      0.000     0.000     0.000     0.000
   01/01/2000 00:01:50      0.000     0.000     0.000     0.000
  
  
  <<< Link 988 >>>
  --------------------------------------------------------------------------
                             Flow  Velocity     Depth  Capacity/
  Date        Time            CMS     m/sec    meters   Setting 
  ----------------------------------------------------------------
   01/01/2000 00:00:10      0.000     0.000     0.000     0.000
   01/01/2000 00:00:20      0.000     0.000     0.000     0.000
   01/01/2000 00:00:30      0.000     0.000     0.000     0.000
   01/01/2000 00:00:40      0.000     0.000     0.000     0.000
   01/01/2000 00:00:50      0.000     0.000     0.000     0.000
   01/01/2000 00:01:00      0.000     0.000     0.000     0.000
   01/01/2000 00:01:10      0.000     0.000     0.000     0.000
   01/01/2000 00:01:20      0.000     0.000     0.000     0.000
   01/01/2000 00:01:30      0.000     0.000     0.000     0.000
   01/01/2000 00:01:40      0.000     0.000     0.000     0.000
   01/01/2000 00:01:50      0.000     0.000     0.001     0.000
  
  
  <<< Link 989 >>>
  --------------------------------------------------------------------------
                             Flow  Velocity     Depth  Capacity/
  Date        Time            CMS     m/sec    meters   Setting 
  ----------------------------------------------------------------
   01/01/2000 00:00:10      0.000     0.000     0.000     0.000
   01/01/2000 00:00:20      0.000     0.000     0.000     0.000
   01/01/2000 00:00:30      0.000     0.000     0.000     0.000
   01/01/2000 00:00:40      0.000     0.000     0.000     0.000
   01/01/2000 00:00:50      0.000     0.000     0.000     0.000
   01/01/2000 00:01:00      0.000     0.000     0.000     0.000
   01/01/2000 00:01:10      0.000     0.000     0.000     0.000
   01/01/2000 00:01:20      0.000     0.000     0.000     0.000
   01/01/2000 00:01:30      0.000     0.000     0.000     0.000
   01/01/2000 00:01:40      0.000     0.000     0.000     0.000
   01/01/2000 00:01:50      0.000     0.000     0.000     0.000
  
  
  <<< Link 99 >>>
  --------------------------------------------------------------------------
                             Flow  Velocity     Depth  Capacity/
  Date        Time            CMS     m/sec    meters   Setting 
  ----------------------------------------------------------------
   01/01/2000 00:00:10      0.000     0.000     0.000     0.000
   01/01/2000 00:00:20      0.000     0.000     0.000     0.000
   01/01/2000 00:00:30      0.000     0.000     0.000     0.000
   01/01/2000 00:00:40      0.000     0.000     0.000     0.000
   01/01/2000 00:00:50      0.000     0.000     0.000     0.000
   01/01/2000 00:01:00      0.000     0.000     0.000     0.000
   01/01/2000 00:01:10      0.000     0.000     0.000     0.000
   01/01/2000 00:01:20      0.000     0.000     0.000     0.000
   01/01/2000 00:01:30      0.000     0.000     0.000     0.000
   01/01/2000 00:01:40      0.000     0.000     0.000     0.000
   01/01/2000 00:01:50      0.000     0.000     0.001     0.001
  
  
  <<< Link 990 >>>
  --------------------------------------------------------------------------
                             Flow  Velocity     Depth  Capacity/
  Date        Time            CMS     m/sec    meters   Setting 
  ----------------------------------------------------------------
   01/01/2000 00:00:10      0.000     0.000     0.000     0.000
   01/01/2000 00:00:20      0.000     0.000     0.000     0.000
   01/01/2000 00:00:30      0.000     0.000     0.000     0.000
   01/01/2000 00:00:40      0.000     0.000     0.000     0.000
   01/01/2000 00:00:50      0.000     0.000     0.000     0.000
   01/01/2000 00:01:00      0.000     0.000     0.000     0.000
   01/01/2000 00:01:10      0.000     0.000     0.000     0.000
   01/01/2000 00:01:20      0.000     0.000     0.000     0.000
   01/01/2000 00:01:30      0.000     0.000     0.000     0.000
   01/01/2000 00:01:40      0.000     0.000     0.001     0.000
   01/01/2000 00:01:50      0.000     0.000     0.001     0.000
  
  
  <<< Link 991 >>>
  --------------------------------------------------------------------------
                             Flow  Velocity     Depth  Capacity/
  Date        Time            CMS     m/sec    meters   Setting 
  ----------------------------------------------------------------
   01/01/2000 00:00:10      0.000     0.000     0.000     0.000
   01/01/2000 00:00:20      0.000     0.000     0.000     0.000
   01/01/2000 00:00:30      0.000     0.000     0.000     0.000
   01/01/2000 00:00:40      0.000     0.000     0.000     0.000
   01/01/2000 00:00:50      0.000     0.000     0.000     0.000
   01/01/2000 00:01:00      0.000     0.000     0.000     0.000
   01/01/2000 00:01:10      0.000     0.000     0.000     0.000
   01/01/2000 00:01:20      0.000     0.000     0.000     0.000
   01/01/2000 00:01:30      0.000     0.000     0.000     0.000
   01/01/2000 00:01:40      0.000     0.000     0.001     0.000
   01/01/2000 00:01:50      0.000     0.000     0.001     0.000
  
  
  <<< Link 992 >>>
  --------------------------------------------------------------------------
                             Flow  Velocity     Depth  Capacity/
  Date        Time            CMS     m/sec    meters   Setting 
  ----------------------------------------------------------------
   01/01/2000 00:00:10      0.000     0.000     0.000     0.000
   01/01/2000 00:00:20      0.000     0.000     0.000     0.000
   01/01/2000 00:00:30      0.000     0.000     0.000     0.000
   01/01/2000 00:00:40      0.000     0.000     0.000     0.000
   01/01/2000 00:00:50      0.000     0.000     0.000     0.000
   01/01/2000 00:01:00      0.000     0.000     0.000     0.000
   01/01/2000 00:01:10      0.000     0.000     0.000     0.000
   01/01/2000 00:01:20      0.000     0.000     0.000     0.000
   01/01/2000 00:01:30      0.000     0.000     0.001     0.000
   01/01/2000 00:01:40      0.000     0.000     0.001     0.000
   01/01/2000 00:01:50      0.000     0.000     0.001     0.000
  
  
  <<< Link 993 >>>
  --------------------------------------------------------------------------
                             Flow  Velocity     Depth  Capacity/
  Date        Time            CMS     m/sec    meters   Setting 
  ----------------------------------------------------------------
   01/01/2000 00:00:10      0.000     0.000     0.000     0.000
   01/01/2000 00:00:20      0.000     0.000     0.000     0.000
   01/01/2000 00:00:30      0.000     0.000     0.000     0.000
   01/01/2000 00:00:40      0.000     0.000     0.000     0.000
   01/01/2000 00:00:50      0.000     0.000     0.000     0.000
   01/01/2000 00:01:00      0.000     0.000     0.000     0.000
   01/01/2000 00:01:10      0.000     0.000     0.000     0.000
   01/01/2000 00:01:20      0.000     0.000     0.000     0.000
   01/01/2000 00:01:30      0.000     0.000     0.000     0.000
   01/01/2000 00:01:40      0.000     0.000     0.000     0.000
   01/01/2000 00:01:50      0.000     0.000     0.000     0.000
  
  
  <<< Link 994 >>>
  --------------------------------------------------------------------------
                             Flow  Velocity     Depth  Capacity/
  Date        Time            CMS     m/sec    meters   Setting 
  ----------------------------------------------------------------
   01/01/2000 00:00:10      0.000     0.000     0.000     0.000
   01/01/2000 00:00:20      0.000     0.000     0.000     0.000
   01/01/2000 00:00:30      0.000     0.000     0.000     0.000
   01/01/2000 00:00:40      0.000     0.000     0.000     0.000
   01/01/2000 00:00:50      0.000     0.000     0.000     0.000
   01/01/2000 00:01:00      0.000     0.000     0.000     0.000
   01/01/2000 00:01:10      0.000     0.000     0.000     0.000
   01/01/2000 00:01:20      0.000     0.000     0.000     0.000
   01/01/2000 00:01:30      0.000     0.000     0.000     0.000
   01/01/2000 00:01:40      0.000     0.000     0.000     0.000
   01/01/2000 00:01:50      0.000     0.000     0.000     0.000
  
  
  <<< Link 995 >>>
  --------------------------------------------------------------------------
                             Flow  Velocity     Depth  Capacity/
  Date        Time            CMS     m/sec    meters   Setting 
  ----------------------------------------------------------------
   01/01/2000 00:00:10      0.000     0.000     0.000     0.000
   01/01/2000 00:00:20      0.000     0.000     0.000     0.000
   01/01/2000 00:00:30      0.000     0.000     0.000     0.000
   01/01/2000 00:00:40      0.000     0.000     0.000     0.000
   01/01/2000 00:00:50      0.000     0.000     0.000     0.000
   01/01/2000 00:01:00      0.000     0.000     0.000     0.000
   01/01/2000 00:01:10      0.000     0.000     0.000     0.000
   01/01/2000 00:01:20      0.000     0.000     0.000     0.000
   01/01/2000 00:01:30      0.000     0.000     0.000     0.000
   01/01/2000 00:01:40      0.000     0.000     0.001     0.000
   01/01/2000 00:01:50      0.000     0.000     0.001     0.000
  
  
  <<< Link 996 >>>
  --------------------------------------------------------------------------
                             Flow  Velocity     Depth  Capacity/
  Date        Time            CMS     m/sec    meters   Setting 
  ----------------------------------------------------------------
   01/01/2000 00:00:10      0.000     0.000     0.000     0.000
   01/01/2000 00:00:20      0.000     0.000     0.000     0.000
   01/01/2000 00:00:30      0.000     0.000     0.000     0.000
   01/01/2000 00:00:40      0.000     0.000     0.000     0.000
   01/01/2000 00:00:50      0.000     0.000     0.000     0.000
   01/01/2000 00:01:00      0.000     0.000     0.000     0.000
   01/01/2000 00:01:10      0.000     0.000     0.000     0.000
   01/01/2000 00:01:20      0.000     0.000     0.000     0.000
   01/01/2000 00:01:30      0.000     0.000     0.000     0.000
   01/01/2000 00:01:40      0.000     0.000     0.000     0.000
   01/01/2000 00:01:50      0.000     0.000     0.000     0.000
  
  
  <<< Link 997 >>>
  --------------------------------------------------------------------------
                             Flow  Velocity     Depth  Capacity/
  Date        Time            CMS     m/sec    meters   Setting 
  ----------------------------------------------------------------
   01/01/2000 00:00:10      0.000     0.000     0.000     0.000
   01/01/2000 00:00:20      0.000     0.000     0.000     0.000
   01/01/2000 00:00:30      0.000     0.000     0.000     0.000
   01/01/2000 00:00:40      0.000     0.000     0.000     0.000
   01/01/2000 00:00:50      0.000     0.000     0.000     0.000
   01/01/2000 00:01:00      0.000     0.000     0.000     0.000
   01/01/2000 00:01:10      0.000     0.000     0.000     0.000
   01/01/2000 00:01:20      0.000     0.000     0.000     0.000
   01/01/2000 00:01:30      0.000     0.000     0.000     0.000
   01/01/2000 00:01:40      0.000     0.000     0.000     0.000
   01/01/2000 00:01:50      0.000     0.000     0.000     0.000
  
  
  <<< Link 998 >>>
  --------------------------------------------------------------------------
                             Flow  Velocity     Depth  Capacity/
  Date        Time            CMS     m/sec    meters   Setting 
  ----------------------------------------------------------------
   01/01/2000 00:00:10      0.000     0.000     0.000     0.000
   01/01/2000 00:00:20      0.000     0.000     0.000     0.000
   01/01/2000 00:00:30      0.000     0.000     0.000     0.000
   01/01/2000 00:00:40      0.000     0.000     0.000     0.000
   01/01/2000 00:00:50      0.000     0.000     0.000     0.000
   01/01/2000 00:01:00      0.000     0.000     0.000     0.000
   01/01/2000 00:01:10      0.000     0.000     0.000     0.000
   01/01/2000 00:01:20      0.000     0.000     0.000     0.000
   01/01/2000 00:01:30      0.000     0.000     0.000     0.000
   01/01/2000 00:01:40      0.000     0.000     0.001     0.001
   01/01/2000 00:01:50      0.000     0.000     0.001     0.001
  
  
  <<< Link 999 >>>
  --------------------------------------------------------------------------
                             Flow  Velocity     Depth  Capacity/
  Date        Time            CMS     m/sec    meters   Setting 
  ----------------------------------------------------------------
   01/01/2000 00:00:10      0.000     0.000     0.000     0.000
   01/01/2000 00:00:20      0.000     0.000     0.000     0.000
   01/01/2000 00:00:30      0.000     0.000     0.000     0.000
   01/01/2000 00:00:40      0.000     0.000     0.000     0.000
   01/01/2000 00:00:50      0.000     0.000     0.000     0.000
   01/01/2000 00:01:00      0.000     0.000     0.000     0.000
   01/01/2000 00:01:10      0.000     0.000     0.000     0.000
   01/01/2000 00:01:20      0.000     0.000     0.000     0.000
   01/01/2000 00:01:30     -0.000     0.000     0.000     0.000
   01/01/2000 00:01:40     -0.000     0.000     0.001     0.001
   01/01/2000 00:01:50     -0.000     0.000     0.001     0.001
  
  
  <<< Link C1 >>>
  --------------------------------------------------------------------------
                             Flow  Velocity     Depth  Capacity/
  Date        Time            CMS     m/sec    meters   Setting 
  ----------------------------------------------------------------
   01/01/2000 00:00:10      0.000     0.000     0.000     0.000
   01/01/2000 00:00:20      0.000     0.000     0.000     0.000
   01/01/2000 00:00:30      0.000     0.000     0.000     0.000
   01/01/2000 00:00:40      0.000     0.000     0.000     0.000
   01/01/2000 00:00:50      0.000     0.000     0.000     0.000
   01/01/2000 00:01:00      0.000     0.000     0.000     0.000
   01/01/2000 00:01:10      0.000     0.000     0.000     0.000
   01/01/2000 00:01:20      0.000     0.000     0.000     0.000
   01/01/2000 00:01:30      0.000     0.000     0.000     0.000
   01/01/2000 00:01:40      0.000     0.000     0.000     0.000
   01/01/2000 00:01:50      0.000     0.000     0.000     0.000
  
  
  <<< Link 756 >>>
  --------------------------------------------------------------------------
                             Flow  Velocity     Depth  Capacity/
  Date        Time            CMS     m/sec    meters   Setting 
  ----------------------------------------------------------------
   01/01/2000 00:00:10      0.000     0.000     0.000     1.000
   01/01/2000 00:00:20      0.000     0.000     0.000     1.000
   01/01/2000 00:00:30      0.000     0.000     0.000     1.000
   01/01/2000 00:00:40      0.000     0.000     0.000     1.000
   01/01/2000 00:00:50      0.000     0.000     0.000     1.000
   01/01/2000 00:01:00      0.000     0.000     0.000     1.000
   01/01/2000 00:01:10      0.000     0.000     0.000     1.000
   01/01/2000 00:01:20      0.000     0.000     0.000     1.000
   01/01/2000 00:01:30      0.000     0.000     0.000     1.000
   01/01/2000 00:01:40      0.000     0.000     0.000     1.000
   01/01/2000 00:01:50      0.000     0.000     0.000     1.000
  

  Analysis begun on:  Tue Jan 27 20:09:58 2026
  Analysis ended on:  Tue Jan 27 20:10:17 2026
  Total elapsed time: 00:00:19