
  EPA STORM WATER MANAGEMENT MODEL - VERSION 5.2 (Build 5.2.4)
  PYSWMM TOOLKIT API - VERSION v1.0 (2025-12-04)
  ------------------------------------------------------------

  WARNING 01: wet weather time step reduced to recording interval for Rain Gage 156
  
  *************
  Element Count
  *************
  Number of rain gages ...... 6
  Number of subcatchments ... 869
  Number of nodes ........... 1133
  Number of links ........... 0
  Number of pollutants ...... 1
  Number of land uses ....... 4
  
  
  *****************
  Pollutant Summary
  *****************
                               Ppt.      GW         Kdecay
  Name                 Units   Concen.   Concen.    1/days    CoPollutant
  -----------------------------------------------------------------------
  TSS                   MG/L      0.00      0.00      0.00
  
  
  ***************
  Landuse Summary
  ***************
                         Sweeping   Maximum      Last
  Name                   Interval   Removal     Swept
  ---------------------------------------------------
  Imperv                     0.00      0.00      0.00
  Trees                      0.00      0.00      0.00
  TurfGrass                  0.00      0.00      0.00
  Water                      0.00      0.00      0.00
  
  
  ****************
  Raingage Summary
  ****************
                                                      Data       Recording
  Name                 Data Source                    Type       Interval 
  ------------------------------------------------------------------------
  156                  156                            INTENSITY    0 min.
  171                  171                            INTENSITY    0 min.
  170                  170                            INTENSITY    0 min.
  155                  155                            INTENSITY    0 min.
  140                  140                            INTENSITY    0 min.
  141                  141                            INTENSITY    0 min.
  
  
  ********************
  Subcatchment Summary
  ********************
  Name                       Area     Width   %Imperv    %Slope Rain Gage            Outlet              
  -----------------------------------------------------------------------------------------------------------
  S10                        0.12     26.99     90.50    2.9270 156                  E133475             
  S100                       0.08     20.01    100.00    1.1500 156                  F138001             
  S101                       0.02      4.09    100.00    0.7860 156                  F138007             
  S102                       0.01      6.85     84.79    2.0870 156                  F134230             
  S103                       0.04     19.65    100.00    0.7930 156                  F138004             
  S104                       0.07     24.52     74.63    3.1770 156                  F133428             
  S105                       0.10     30.61    100.00    0.7960 156                  F137013             
  S106                       0.04     13.97     23.12    4.2750 156                  UN12                
  S106_1                     0.25     45.68     65.95    3.7540 156                  E134261             
  S106_2                     0.28     36.25     29.74    4.0820 156                  E134261             
  S106_3                     0.13     25.79     87.58    4.3240 156                  E143355             
  S106_4                     0.22     23.33     96.05    2.5970 156                  E143355             
  S107                       0.15     26.58     51.35    5.5000 156                  E134262             
  S108                       0.03     12.38    100.00    1.0300 156                  F137014             
  S109                       0.10     35.06      6.49    1.8770 171                  F138015             
  S109_1                     0.30    107.75     33.09    5.8020 171                  F1306017            
  S109_2                     0.06     31.64     72.11    2.5970 171                  F1306016            
  S11                        0.24     46.67     97.38    3.1310 156                  F1306013            
  S110                       0.21     38.66     98.57    1.0730 156                  F137009             
  S111                       0.06     19.24    100.00    0.9470 156                  F137011             
  S112                       0.22     28.46     79.10    2.9860 170                  F147008             
  S112_3                     0.12     23.82     62.49    5.3130 170                  F1409017            
  S112_4                     0.07     28.38     59.62    3.1390 170                  F143640             
  S113                       0.24     21.35    100.00    2.9900 156                  E134219             
  S114                       0.02     10.80    100.00    0.7940 156                  F137010             
  S115                       0.22     29.80     88.48    1.5540 156                  F134112             
  S116                       0.09     31.03     98.16    0.6900 155                  E143754             
  S116_1                     0.10     24.78     48.15    1.6420 171                  F1306022            
  S116_2                     1.16     75.28     93.74    1.3170 156                  F133459             
  S116_3                     0.10     17.71     86.20    2.3150 156                  F133459             
  S116_4                     0.04     14.53     80.08    2.0640 140                  E1520537            
  S116_5                     0.04     13.12     86.73    3.0850 140                  E1520536            
  S117                       0.06     17.89     69.76    3.5850 156                  UN78                
  S118                       0.02     12.46     83.54    6.6160 156                  F1302002            
  S119                       0.11     38.17     54.09    2.0900 171                  F1306023            
  S12                        0.33     57.36     82.06    2.8560 156                  UN17                
  S120                       0.13     36.86    100.00    1.2900 156                  F138009             
  S121                       0.54     55.62     60.17    3.1890 170                  F143657             
  S121_1                     0.01      4.72    100.00    2.1110 170                  F143653             
  S121_3                     0.12     36.11     53.71    3.8130 170                  F143641             
  S122                       0.09     28.55     29.75    1.5910 156                  F134101             
  S122_1                     0.10     22.86     79.66    2.8940 156                  F13002000           
  S122_2                     0.08     38.11     89.41    3.3840 156                  E135220             
  S123                       0.05     29.38    100.00    1.2290 156                  F138002             
  S124                       0.01      6.30     99.00   10.4530 156                  UN44                
  S125                       0.23     46.66      6.86    3.3840 156                  F143623             
  S125_1                     0.06     21.76     73.77    2.1190 171                  F132690             
  S125_3                     0.14     38.69     68.99    2.4370 171                  F13269              
  S126                       0.53     63.83     52.30    2.5580 156                  UN32                
  S127                       0.09     40.52     98.28    1.3340 140                  E143751             
  S128                       0.11     34.34     97.91    1.9990 156                  E1437196            
  S128_2                     0.52     46.11     36.26    1.6370 156                  UN80                
  S129                       0.27     49.26     73.12    2.2000 155                  E143798             
  S129_2                     0.07     29.42     95.60    1.4530 156                  F138014             
  S13                        0.29     54.49     89.22    2.1660 156                  UN18                
  S130                       0.05     16.06     58.85    4.4120 170                  F144006             
  S130_1                     0.15     20.89     53.41    2.3610 170                  F147014             
  S130_2                     0.04     10.99     35.28    3.2770 170                  F147010             
  S131                       0.09     38.17     97.28    1.7950 155                  E143795             
  S132                       0.29     47.70     95.07    3.6070 156                  E134213             
  S133                       0.40     76.10     45.30    3.4960 156                  F134124             
  S134                       0.44     35.65     85.97    2.8750 156                  E143357             
  S134_1                     0.12     34.16      6.03    1.7500 156                  E134008             
  S134_2                     0.20     37.44     23.21    2.2760 156                  E134007             
  S135                       0.14     28.23     84.01    3.0380 156                  F1302001            
  S136                       0.17     28.10      6.35    3.4730 156                  F143573             
  S137                       0.03     13.62     38.38    3.4430 156                  E134263             
  S138                       0.30     43.30     99.66    1.0230 155                  E143791             
  S139                       0.04     10.11     95.25    2.5080 155                  E143787             
  S139_1                     0.09     38.92     70.81    1.7890 171                  F1306020            
  S14                        0.72     42.51     84.20    1.6430 156                  F133454             
  S140                       0.35     55.36     33.35    4.0380 156                  E143393             
  S141                       0.07     34.41      8.39    3.3820 156                  F143570             
  S141_1                     0.14     32.07     77.32    2.3110 171                  F13263              
  S142                       0.04     16.44     14.96    3.1100 156                  F143564             
  S142_1                     0.01      7.27     63.03    1.9570 156                  F143564             
  S142_3                     0.03     14.12      0.00    3.0970 156                  F143565             
  S143                       0.12     42.94     69.47    4.5330 156                  E134265             
  S144                       3.96    229.03      9.96    2.9490 156                  F134118             
  S145                       0.16     50.87     90.77    1.9690 156                  F138013             
  S146                       0.02     19.30     78.04    3.5810 156                  E134264             
  S147                       0.01     13.98     96.59    1.9570 156                  E139000             
  S148                       0.14     31.97     55.53    3.0130 156                  F143555             
  S148_1                     0.06     21.41     28.54    3.5820 156                  F143561             
  S148_3                     0.05     20.83     44.47    3.5170 156                  F143560             
  S148_4                     0.08     26.06     27.62    3.8820 156                  F143562             
  S148_5                     0.09     21.19     41.85    3.7850 156                  F143577             
  S149                       0.01      5.86    100.00    3.2100 156                  E143378             
  S15                        0.32     39.78     98.34    0.8500 156                  UN26                
  S15_1                      0.06     12.94    100.00    1.0520 156                  UN20                
  S15_2                      0.27     46.44     93.98    2.0450 156                  F133466             
  S150                       0.14     45.99     89.72    2.4590 156                  F138008             
  S151                       0.05     16.62     14.78    3.3080 156                  F143567             
  S151_4                     0.09     27.90    100.00    1.3140 171                  F1306019            
  S151_5                     0.11     23.30     81.06    1.8430 171                  F1306018            
  S152                       0.04     25.00    100.00    2.3640 156                  E143361             
  S153                       0.04     13.79     66.50    2.9280 156                  E143350             
  S153_1                     0.03      4.03      7.86    2.1400 156                  E133420             
  S153_2                     0.32     44.22     49.27    2.4010 156                  E133420             
  S154                       0.32     33.50     77.34    4.8120 155                  E144050             
  S154_2                     0.56     44.06      8.80    2.7330 156                  E133407             
  S154_3                     0.42     34.87     89.55    2.7390 156                  E133412             
  S154_4                     0.19     33.30     41.53    2.5020 156                  E133411             
  S155                       0.13     25.59     52.72    2.7070 156                  F134105             
  S156                       0.15     25.45     91.47    3.5470 155                  F147144             
  S156_1                     0.03     17.22      0.00    1.8550 156                  UN52                
  S156_2                     0.06     24.16     33.90    3.4700 156                  E133416             
  S157                       0.03     10.44    100.00    2.0430 156                  E1331939            
  S157_1                     0.09     16.49     38.74    3.8210 156                  E134290             
  S157_10                    0.10     16.59     97.43    3.4880 156                  E1331932            
  S157_2                     0.15     34.07     75.27    2.9420 156                  E134011             
  S157_4                     0.01     11.55     99.98    2.2860 156                  E1331936            
  S157_5                     0.54     66.73     90.10    2.1430 156                  E1331934            
  S157_6                     0.04     16.11     99.77    2.6170 156                  E1331940            
  S157_7                     0.11     18.39     98.61    3.5310 156                  E1331932            
  S157_9                     0.16     25.45     98.92    1.6700 156                  UN47                
  S158                       0.04     15.65     29.31    3.1240 156                  F133422             
  S159                       0.08     21.28     65.46    4.4820 156                  E134259             
  S16                        0.22     34.53     94.78    2.5410 156                  E133476             
  S160                       0.06     20.29     50.48    3.4440 170                  F143666             
  S160_2                     0.19     45.96     66.93    2.2980 156                  E134204             
  S161                       0.07     34.31     81.79    1.1960 156                  F134138             
  S162                       0.03     14.23     76.77    4.2560 155                  E143783             
  S162_1                     0.02     18.51     74.97    2.3290 155                  E145300             
  S163                       0.07     19.66     62.12    2.7190 156                  E134010             
  S164                       0.09     11.34     97.74    2.5940 156                  E1331933            
  S164_1                     0.02     12.78     72.82    6.3990 156                  E134258             
  S164_2                     0.01      8.57     75.48    4.7960 156                  E134256             
  S164_3                     0.84     85.82     59.06    3.2090 156                  E134274             
  S164_5                     0.24     59.66     57.86    5.7330 156                  E134254             
  S165                       0.01     11.47      0.00    4.4050 156                  E134009             
  S166                       0.31     46.35     14.92    3.7530 156                  F134128             
  S167                       0.06     33.34     46.16    6.2900 156                  F138012             
  S168                       0.13     24.30     61.82    2.6680 171                  F13262              
  S169                       0.03     18.37     44.88    3.4760 156                  E133415             
  S17                        0.06     42.06     92.57    2.6470 156                  E134203             
  S17_3                      0.06     20.89     93.97    2.6070 156                  E134208             
  S170                       0.02     10.88     76.26    3.3350 156                  E135000             
  S171                       0.06     23.31     96.36    2.7040 171                  F1306043            
  S171_1                     0.26     44.55     64.67    2.8910 171                  F13258              
  S171_2                     0.04     13.14     89.56    2.2460 171                  F13255              
  S172                       0.46     40.17     57.86    3.1510 171                  F13257              
  S172_1                     0.15     30.32     59.81    3.4140 171                  F13254              
  S172_2                     0.08     20.38     62.02    4.6510 171                  F13253              
  S172_4                     0.20     29.22     70.03    3.0920 171                  F13252              
  S173                       0.15     24.96     63.88    3.8080 156                  E134289             
  S174                       0.01      8.08     72.05    2.5270 156                  E133414             
  S175                       0.13     23.93     12.74    6.3780 156                  F135999             
  S176                       0.09     24.09     48.32    2.7090 156                  E134291             
  S177                       0.05     26.24     86.60    7.3270 156                  E1331931            
  S177_1                     0.17     22.50     90.82    2.8490 156                  E1331937            
  S177_3                     0.23     31.29     96.27    2.1350 156                  E1331932            
  S178                       0.12     28.93      0.00    5.4460 156                  F134137             
  S179                       0.02     13.27     64.26    2.4840 156                  F143549             
  S18                        0.08     18.92     89.53    1.8680 156                  UN19                
  S180                       1.09     94.36     88.90    2.9920 155                  E143775             
  S180_2                     0.12     35.36      0.68    7.2830 171                  F134140             
  S181                       0.26     47.06     86.93    1.0530 140                  UN76                
  S182                       0.09    102.00     32.03    4.8830 156                  F143552             
  S183                       0.01      7.66     14.57    7.2490 156                  E134260             
  S184                       0.01      9.09     56.17    3.9220 156                  E134275             
  S185                       0.55     39.99     59.38    3.3740 171                  F13256              
  S186                       0.43     44.98     86.29    4.2360 155                  E143336             
  S186_1                     0.12     28.62     99.24    2.2930 156                  E133399             
  S186_2                     0.31     48.45     59.88    3.4460 156                  E133398             
  S186_4                     0.20     32.53     73.66    3.5460 155                  E144018             
  S186_7                     0.03     11.24     99.21    3.3890 155                  E143336             
  S187                       0.87     88.12     43.95    2.7520 171                  F149004.2           
  S187_1                     0.52     37.52     47.39    2.9800 156                  E144272             
  S187_2                     0.48     46.76     94.00    1.6690 156                  E143381             
  S188                       0.10     45.43     36.10    6.2320 140                  E143971             
  S188_1                     0.09     24.45      0.00    6.1350 171                  F134146             
  S189                       0.14     41.29     64.74    3.3690 171                  F1409043            
  S189_1                     0.32     31.36     63.94    2.4890 171                  F1409045            
  S189_2                     0.56     47.77     31.39    2.5780 171                  F1409046            
  S19                        0.41     59.15     56.56    2.6730 155                  F143924             
  S19_1                      0.44     48.22     89.73    2.3300 156                  F1306011            
  S19_2                      0.27     25.47     86.81    1.8770 156                  F133434             
  S19_3                      0.09     29.87     79.53    2.3430 156                  F133429             
  S19_4                      0.25     51.93     81.26    2.6240 156                  F133431             
  S190                       0.33     28.60     65.86    5.5350 155                  E145006             
  S190_1                     0.05     23.68     83.77    4.7870 156                  E133404             
  S190_2                     0.19     43.47     75.47    3.8670 156                  E133402             
  S190_3                     0.66     61.12     77.87    5.3040 155                  T66                 
  S191                       0.34     45.26     96.00    2.3380 156                  E1331935            
  S192                       0.07     37.29      3.98    2.5130 156                  F136001             
  S193                       0.38     56.92     54.04    3.6080 156                  E134288             
  S194                       0.26     37.22     58.77    5.9630 156                  E1331924            
  S195                       0.07     30.24     82.27    1.8580 171                  F13261              
  S196                       0.06     32.53     43.91    5.1120 140                  E143964             
  S196_1                     0.43     62.69      8.47    2.5090 171                  F135013             
  S196_2                     0.07     21.41     32.78    4.5610 140                  E143274             
  S196_3                     0.10     38.30     10.86    3.6780 156                  F135014             
  S197                       0.14     34.46     63.83    5.0060 171                  F134148             
  S198                       0.41     80.55     58.91    3.8560 140                  E147013             
  S198_1                     0.05     25.25     49.70    3.4060 171                  F13259              
  S198_2                     0.08     26.12     87.85    2.4370 171                  F13260              
  S199                       0.10     36.57     28.12    2.2910 171                  F1306037            
  S2                         0.34     28.42     83.59    2.4010 156                  E133477             
  S20                        0.38     62.16     86.67    1.9230 156                  E133470             
  S200                       0.07     23.28     65.33    2.8940 141                  E144252             
  S200_1                     0.04     17.58     57.91    8.0280 156                  E133385             
  S201                       0.16     37.82     55.77    3.8800 170                  F144005             
  S202                       0.19     41.82     66.30    2.3930 140                  E145064             
  S202_3                     0.58     81.11      3.24    2.3480 156                  F143572             
  S202_5                     0.16     23.50     99.42    0.6010 140                  UN73                
  S203                       0.03     15.14     28.60    2.0810 156                  F136002             
  S204                       0.17     51.27     59.92    3.2960 171                  F1306035            
  S205                       0.06     25.79      1.26    6.4520 140                  E1437164            
  S205_1                     0.15     40.51     61.24    2.9210 171                  F1306036            
  S205_2                     0.03     12.45     64.44    2.7650 171                  F1306040            
  S206                       0.08     28.94     78.89    2.0010 140                  E145062             
  S207                       0.08     48.38      7.45    3.7460 140                  E147008             
  S208                       0.01      6.37     77.21    1.6730 156                  E1331929            
  S209                       0.33     31.13     73.06    4.0920 170                  F143669             
  S209_2                     0.37     38.06     54.18    5.5370 170                  F143661             
  S21                        0.24     36.85     97.23    1.8490 156                  F133462             
  S210                       0.15     20.39     58.87    6.7390 155                  UN3                 
  S210_1                     0.06     21.17     99.24    3.3160 156                  E1437195            
  S210_2                     0.18     33.04     98.36    2.0250 156                  E1331925            
  S210_4                     0.03     14.85     81.34    3.8840 156                  E1437192            
  S210_5                     0.03     10.58     18.71    6.0210 156                  E1437193            
  S211                       0.22     49.14     77.30    4.3500 171                  F1306034            
  S212                       0.08     12.26     89.81    3.8050 155                  E143736             
  S212_1                     0.04     20.72     72.15    3.5010 171                  F1306042            
  S213                       1.19     70.42     50.41    3.5780 170                  F143668             
  S213_1                     0.03     16.44     66.43    3.5410 156                  E134287             
  S213_2                     0.45     80.45     59.75    3.3640 156                  E134286             
  S214                       0.22     48.04     57.74    2.8920 171                  F13250              
  S215                       0.34     55.43     37.55    3.4630 156                  E133394             
  S216                       0.24     56.94     86.96    1.6730 170                  F143681.09          
  S216_1                     0.18     30.55     64.08    3.2670 156                  E144283             
  S216_10                    0.10     20.50     99.73    1.5040 170                  F143680             
  S216_2                     0.04     18.24     46.38    4.5110 156                  E134285             
  S216_3                     0.17     34.82     63.69    3.7210 156                  E134280             
  S216_4                     0.08     11.58     39.32    3.0380 170                  F143672             
  S216_5                     0.49     68.16     59.85    3.4500 156                  E134281             
  S216_6                     0.27     50.61     60.75    3.7670 156                  E134250             
  S216_7                     0.01      4.12     55.70   16.4290 156                  E134250             
  S216_8                     0.11     38.76     99.97    0.9660 170                  F143689.13          
  S216_9                     0.08     25.24     99.92    1.6400 170                  F143679             
  S217                       0.05     14.34     74.25    5.0480 171                  F1306033            
  S218                       0.33     42.55     36.26    3.9070 171                  F143681             
  S218_1                     0.20     55.31     70.34    2.5110 171                  F143683             
  S219                       0.35     43.60     75.12    0.9050 156                  UN30                
  S22                        0.01      9.92     76.51    5.9350 171                  F13299              
  S220                       0.25     65.92     46.25    2.2920 171                  F1306044            
  S221                       2.28    134.51      8.68    3.0300 156                  F143545             
  S222                       0.23     48.23     56.60    3.5740 156                  E134278             
  S223                       0.63     66.05     56.05    2.7150 171                  F1409048            
  S224                       0.42     43.95     96.95    2.0080 156                  E143380             
  S225                       0.15     21.95     69.78    4.8490 155                  E145010             
  S225_1                     0.08     18.20     90.43    1.7740 156                  E143391             
  S225_2                     1.69    119.56      8.16    2.5950 156                  E143392             
  S226_2                     0.41     47.26     11.27    2.7600 156                  F143574             
  S227                       0.31     56.29     76.08    2.8410 171                  F1306041            
  S228_1                     0.04     10.87     54.54    1.8310 171                  F1409042            
  S228_3                     0.15     35.39     51.41    3.1550 171                  F1409041            
  S228_4                     0.28     58.22     69.38    3.2310 171                  F1409041            
  S229                       0.23     18.91     92.99    3.1220 155                  E145007             
  S229_1                     0.05     18.26    100.00    3.3840 156                  E133397             
  S229_2                     0.05     21.03     10.02    5.6470 156                  E133395             
  S229_6                     0.01      7.09     33.76   15.1630 155                  UN58                
  S229_7                     0.18     19.86     70.02    4.7580 155                  UN4                 
  S23                        0.26     54.82     91.75    2.4380 156                  E133482             
  S230                       0.14     18.11     93.02    4.4820 155                  E145009             
  S231                       0.23     50.59     72.98    4.4460 171                  F13251              
  S232                       0.11     43.27     70.50    2.2960 170                  F143689.09          
  S232_2                     0.18     33.64     93.76    2.5550 156                  E143375             
  S233                       0.35     56.93     57.40    2.8930 170                  F143688             
  S233_1                     0.77     75.89     61.11    3.1760 170                  F143674             
  S233_2                     0.01      1.98     84.07    6.4090 170                  F143677             
  S233_3                     0.06     15.85     33.66    3.9610 170                  F143676             
  S234                       0.06     19.28     58.97    3.4120 156                  E134280             
  S235                       0.38     58.61     92.32    3.0740 155                  E143330             
  S236_3                     0.05     16.05      2.86    2.9440 156                  F143569             
  S237                       0.16     31.14     39.51    2.5380 171                  F147004             
  S238                       0.17     19.49     50.69    3.8600 156                  E144272             
  S24                        0.04     14.17     84.61    3.0230 171                  F13298              
  S241                       0.43     56.56      2.79    1.7260 170                  F143689.12          
  S241_1                     0.13     26.37     23.83    2.5420 171                  F143681.02          
  S241_2                     0.15     32.57     66.88    4.8820 156                  E144277             
  S241_4                     0.22     50.80      5.50    3.0270 171                  F143681.04          
  S242                       0.12     45.87     68.13    2.5680 170                  F143689.05          
  S246                       2.64    360.67      5.95    6.1580 156                  S1                  
  S246_2                     0.20     37.51     79.15    3.4680 171                  F1409025            
  S246_5                     0.14     29.03     60.78    3.7100 171                  F1409024            
  S246_6                     0.04     16.27     68.08    3.1130 171                  F1409023            
  S246_7                     0.05     22.81     80.57    3.5910 171                  F1409022            
  S246_8                     0.17     38.67     79.15    3.8220 171                  F1409021            
  S247                       0.30     48.02     49.23    4.3680 171                  F1409039            
  S248                       0.01      7.95     61.98    1.9770 141                  E14160              
  S249_1                     0.17     37.21     60.07    3.5220 171                  F143700             
  S249_2                     0.12     41.48     39.63    2.4820 171                  F143702             
  S25                        0.09     20.58     56.94    3.2230 171                  F13289              
  S250                       0.04     22.79     79.48    5.1390 155                  E144004             
  S250_1                     0.06     15.27     63.80    2.5000 155                  E143332             
  S250_4                     0.01      8.15     97.22    2.3690 155                  E144032             
  S253                       0.25     32.38     27.09    1.6590 170                  F143689.10          
  S253_1                     1.90    153.16     50.76    3.4980 156                  E143322             
  S253_2                     0.21     31.03     44.23    3.5670 156                  E1437178            
  S254                       0.09     22.17     88.38    4.0290 155                  E143324             
  S254_1                     0.11     28.88     95.41    1.6160 156                  E143390             
  S254_2                     0.03     14.59     40.95    6.0190 156                  E143386             
  S256                       0.03     10.85     75.05    3.9730 171                  F1409037            
  S257                       0.38     43.57      2.78    3.7460 156                  F143588             
  S257_1                     0.05     32.70     22.55    2.6260 156                  F143585             
  S257_3                     0.08     25.54      0.00    4.0690 156                  F143589             
  S258                       0.07     23.15     52.29    4.9630 171                  F143704             
  S258_3                     0.18     35.71     40.11    1.9050 171                  F143703             
  S259_1                     0.05     25.88      0.00    3.0080 171                  F149000.01          
  S259_2                     0.08     26.75     34.33    4.1600 171                  F149000             
  S26                        0.25     40.23     82.05    2.9570 156                  E134207             
  S26_1                      0.07     25.36     73.69    3.7110 156                  F133448             
  S26_2                      0.21     38.80     90.84    2.0740 156                  F1306012            
  S260                       0.12     24.48     66.72    2.7660 155                  E1437173            
  S260_1                     0.11     25.66     76.02    3.8500 156                  E143372             
  S260_2                     0.23     58.46     90.64    3.1820 156                  E143369             
  S262                       0.10     43.90     70.84    2.5760 170                  F143689.03          
  S262_1                     0.29     38.97     86.85    2.9730 156                  E143383             
  S262_2                     0.02      7.04     96.14    2.5120 156                  E143384             
  S263_1                     0.19     39.92      0.00    3.7320 156                  F143558             
  S263_4                     0.09     25.26     21.72    4.2150 156                  F143557             
  S264                       0.29     54.68      7.27    2.5620 171                  F143681.07          
  S264_2                     0.78     69.60     58.82    2.7720 170                  F143692             
  S265                       0.19     38.78     64.41    3.5280 156                  E143308             
  S266                       0.57     90.64      6.68    2.8210 156                  F143587             
  S267                       0.32     57.76     24.61    2.5210 171                  F149002.01          
  S268                       0.15     37.85     77.86    3.2330 156                  E1437176            
  S269                       0.04     18.50     64.66    3.5030 141                  E143306             
  S269_1                     0.12     21.28     63.22    3.6570 141                  E143302             
  S269_2                     1.06    113.81     74.12    4.4700 156                  E143300             
  S27                        0.06     25.00     73.14    2.0130 171                  F13296              
  S27_1                      0.07     16.06    100.00    2.1250 171                  F1306046            
  S27_3                      0.11     27.59     84.39    2.5100 171                  F13297              
  S270                       0.79     77.57     66.67    2.9800 170                  F143694             
  S270_2                     0.01      6.22     97.34    2.7830 156                  E143377             
  S271                       0.01     11.89    100.00    2.5310 156                  E143307             
  S272                       0.38     53.31     42.01    2.0450 171                  F143706             
  S273                       0.15     33.78     37.40    2.6670 171                  F149003             
  S274                       0.15     27.68      4.25    1.4000 170                  F143689.08          
  S274_1                     0.03     18.84     89.67    3.3700 156                  E143373             
  S274_2                     0.00      5.63     62.20    1.5850 156                  E143374             
  S275                       0.18     36.33     49.51    3.2360 171                  F143701             
  S276                       0.16     24.01     34.59    1.5920 170                  F143689.04          
  S277_1                     0.09     30.06      7.08    3.8260 156                  F143584             
  S277_2                     0.03     13.18     30.40    2.8650 156                  F143579             
  S277_5                     0.06     20.88      0.00    3.6450 156                  F143582             
  S277_7                     0.08     20.15      8.22    3.9060 156                  F143580             
  S279_2                     0.17     32.37     97.41    3.0040 156                  E143356             
  S28                        0.23     50.90     91.37    2.0510 155                  F143900             
  S28_2                      0.25     44.63    100.00    1.3740 156                  F133467             
  S28_3                      0.04     15.97     97.26    2.0450 156                  F133465             
  S281                       0.18     35.26     91.82    3.2180 156                  E143352             
  S282_2                     0.26     43.34     11.28    2.4940 156                  F143532             
  S283                       0.21     34.13     32.04    4.0890 156                  E143366             
  S283_4                     0.15     28.34      2.49    4.0990 156                  E143367             
  S284                       0.02      9.29     35.98    7.2070 156                  E143368             
  S285_1                     0.13     23.85     82.69    3.3150 171                  F1409032            
  S285_3                     0.10     25.37     77.79    2.9090 171                  F1409031            
  S285_4                     0.10     18.83     63.91    3.4470 171                  F1409031            
  S286_2                     0.19     50.39     31.32    3.4060 156                  F143550             
  S287                       0.14     23.71     72.27    2.3570 171                  F1409027            
  S288                       0.12     37.15     92.04    2.6330 156                  E1437191            
  S289_2                     0.45     33.61     33.05    2.0680 171                  F149004.5           
  S289_5                     0.70     66.47     52.04    2.6390 171                  F149004.4           
  S29                        0.13     38.69     65.09    2.7590 156                  UN23                
  S29_1                      0.08     23.26     10.36    1.8000 156                  E133481             
  S29_2                      1.40     81.27     62.89    2.5650 156                  E133480             
  S29_4                      0.07     22.36     17.79    1.9360 156                  05-0088             
  S29_7                      0.06     14.79      8.06    1.6400 156                  05-0088             
  S290                       0.15     41.18     65.72    2.6410 171                  F143707             
  S291_2                     0.25     34.28     53.36    2.7830 171                  F143710             
  S293_2                     0.29     41.98      1.06    2.7700 171                  F143681.04          
  S293_3                     0.13     40.22      0.00    1.9330 171                  F143681.04          
  S294                       0.07     19.42     94.02    1.8610 156                  E143353             
  S295_1                     0.17     35.03     95.53    2.5230 156                  E143358             
  S296_3                     0.05     19.89     32.47    3.6990 156                  F143602             
  S296_4                     0.10     27.93     36.15    4.7350 156                  F143547             
  S299                       0.05     18.00    100.00    2.2710 156                  E143364             
  S3                         0.17     28.54     93.58    1.6300 156                  F133469             
  S3_2                       0.20     41.67     92.62    2.7000 156                  E133465             
  S3_3                       1.00     60.44     90.55    2.0890 156                  F133468             
  S30                        0.11     30.43     59.25    2.4100 156                  E133487             
  S300_2                     0.02     11.91      0.00    4.5320 156                  F143598             
  S300_3                     0.20     36.11      8.76    5.2000 156                  F143536             
  S302_1                     0.07     15.96     42.32    3.0810 156                  F143542             
  S303                       0.01      8.32     15.29    6.9860 156                  F143546             
  S304_2                     0.06     22.85      0.57    3.3650 156                  F143583             
  S305                       0.13     37.30     73.03    3.0440 171                  F1409028            
  S306                       0.11     28.52     96.80    2.0660 155                  E143991             
  S308                       0.20     35.73     72.44    3.9800 156                  E1437177            
  S309                       0.42     68.03     20.57    3.8830 156                  F143519             
  S31                        0.98     96.29     92.88    1.8170 171                  F13288              
  S310_2                     0.02     14.35     21.18    2.6920 156                  F143590             
  S310_3                     0.11     27.84      0.00    3.5520 156                  F143593             
  S313                       0.02     12.29     99.05    3.3640 156                  E143349             
  S313_1                     0.07     16.88     96.25    2.8800 156                  E143348             
  S313_4                     0.03     11.68      7.21    8.5760 156                  E147137             
  S314_1                     0.02     18.43     37.06    4.9100 156                  F143548             
  S315                       0.02      7.70    100.00    2.7290 156                  E143362             
  S317_1                     0.59     68.35      1.38    1.6040 170                  F143681.06          
  S318                       0.28     45.31     16.32    4.6220 156                  E143360             
  S32                        0.28     34.70     51.62    2.4320 171                  F13264              
  S32_1                      0.33     59.63     77.17    2.4370 156                  E133473             
  S32_2                      0.22     33.60     90.03    2.2200 156                  E133473             
  S320                       0.04     15.47      0.00    3.0190 156                  F143539             
  S322                       0.13     22.50     90.17    2.2860 155                  E143326             
  S323                       0.06     19.72     58.54    6.7490 141                  E143299             
  S324_1                     1.06     86.57      4.28    3.5020 155                  F143622             
  S325                       0.98     63.41     85.08    3.1350 155                  E143327             
  S326                       0.01     10.89      0.00    2.6720 156                  F143540             
  S327                       0.05     25.15     34.54    4.5650 156                  F143617             
  S328_1                     0.08     13.62     58.10    3.1580 170                  F143654             
  S328_3                     0.38     51.65     65.43    3.3030 170                  F147006             
  S33                        0.03     15.16     99.97    4.4290 156                  E133473             
  S330                       0.34     41.45     75.54    4.0560 170                  F147016             
  S331                       0.06     29.66     30.13    2.1920 156                  F143538             
  S333                       0.02     16.31     88.55    3.1220 156                  E143354             
  S334                       0.02      7.56     97.56    2.9430 155                  E144009             
  S334_2                     0.07     12.65     94.75    3.5030 155                  E144008             
  S337                       0.26     42.13     62.71    3.3800 170                  F1409035            
  S338                       0.05     19.81     76.41    2.0810 140                  E143978             
  S34                        0.10     21.80     79.67    2.0660 171                  F132710             
  S34_1                      0.14     46.02     87.69    2.7510 171                  F13292              
  S34_3                      0.07     26.42     86.08    3.3090 171                  F13278              
  S34_4                      0.04     16.23     87.18    2.8060 171                  F13277              
  S34_5                      0.05     13.70     71.14    3.7670 171                  F13279              
  S34_7                      0.21     47.39     69.18    2.7820 171                  F13280              
  S342                       0.02      7.25     11.51    3.4000 156                  F143597             
  S347                       0.13     23.49     61.53    5.6600 155                  E146004             
  S35                        0.03      9.68     76.57    2.7570 171                  F13286              
  S350_1                     0.05     14.61     19.77    4.5680 155                  F143605             
  S350_2                     0.15     44.11     34.44    3.3400 155                  F143604             
  S352                       0.16     34.23     72.97    3.4620 155                  E1437175            
  S354                       0.05     22.64     22.08    4.2980 155                  F143603             
  S357_2                     0.08     23.04     36.76    4.4990 156                  F143616             
  S357_3                     0.08     38.09     24.54    3.5460 156                  F143615             
  S359                       0.04     16.06     69.17    4.2500 140                  E143290             
  S36                        0.46     57.47     91.83    0.8280 156                  F133464             
  S362                       0.47     54.03     85.94    4.0040 155                  UN88                
  S364                       0.36     41.72     15.41    6.5450 155                  F143515             
  S365_1                     0.04     15.26     44.90    3.3160 170                  F147009             
  S365_2                     0.03     10.85     62.76    3.9170 170                  F1409016            
  S368                       0.37     35.99     86.90    4.2110 155                  UN59                
  S369_1                     0.07     24.86     21.12    6.5180 155                  F143510             
  S37                        0.06     27.07     78.25    1.5730 171                  F13295              
  S371                       0.37     41.79     75.57    3.8250 155                  E143318             
  S372_1                     1.87    125.32     10.42    3.7450 155                  F143514             
  S372_2                     0.21     21.67     65.62    5.6460 155                  F1409018            
  S375_5                     0.02      7.86     49.51    3.1980 170                  F143664             
  S378                       0.02     12.61     67.95    4.3590 170                  F1409036            
  S38                        0.19     33.66     82.44    2.6470 156                  E133468             
  S380_2                     0.05     23.25     55.97    1.5220 170                  F143689.07          
  S381                       0.15     29.45     46.54    4.5150 155                  F143606             
  S384                       0.01      5.76    100.00    2.5920 140                  E143292             
  S385_1                     0.19     32.54     67.67    5.5390 140                  E143288             
  S385_2                     0.07     18.73     50.78    4.1340 140                  E143297             
  S386                       0.22     26.18     37.51    2.7900 155                  F146005             
  S388_2                     0.03      9.11     47.98    2.6410 170                  F147008             
  S388_4                     0.24     33.54     73.45    3.5960 170                  F147011             
  S389_1                     0.06     20.13     44.30    3.2760 140                  E143287             
  S389_2                     0.12     26.40     77.87    3.5700 140                  E143286             
  S39                        0.11     23.68     57.23    2.5820 171                  F13287              
  S390                       0.06     21.94     64.11    1.9380 155                  E143340             
  S392                       0.03     15.14     78.20    2.6730 140                  E143293             
  S393_1                     0.33     54.62     10.64    2.8600 155                  F143645             
  S396_2                     0.03     18.73     47.43    4.1090 170                  F147007             
  S397                       0.35     40.97     65.00    3.3210 170                  F147012             
  S4                         0.27     77.05     60.27    2.6200 156                  F133473             
  S40                        0.11     24.05     57.33    3.2460 155                  F143901             
  S401                       0.46     41.83     67.98    3.9590 155                  E143315             
  S402_2                     0.03     15.85     69.25    3.1480 170                  F143656.01          
  S403                       0.03     20.42     82.02    2.2020 170                  F143689.06          
  S404                       0.02      9.00     84.78    3.3280 155                  UN4                 
  S405                       0.01      5.88     21.67    6.4040 140                  E143297             
  S407                       0.01      5.96     83.66    2.0770 155                  E1437172            
  S41                        0.12     28.93     96.86    1.5660 156                  F133455             
  S410                       0.01      8.78     15.93    4.4790 155                  F143608             
  S411                       0.02     11.91     96.96    3.6050 155                  E143339             
  S412                       0.31     47.64     13.13    3.4810 155                  F143607             
  S413                       0.59     53.34     68.83    2.5690 170                  F143656             
  S414_2                     1.36     94.06     59.93    2.9760 170                  F144002             
  S417                       0.00      4.95    100.00    1.5970 155                  E143316             
  S418                       0.29     38.47     74.51    2.7060 140                  E143284             
  S42                        0.73     58.38     83.33    2.8040 156                  UN37                
  S420                       0.85     64.75     79.20    3.0660 155                  E143988             
  S421                       0.18     34.02     80.56    4.0960 170                  F143650             
  S421_2                     0.26     36.33     47.55    2.8870 155                  F143648             
  S421_3                     0.46     52.79     22.45    3.1050 155                  F1409013            
  S421_4                     0.14     25.13     60.94    3.0730 155                  F1409012            
  S424_1                     0.33     34.08     40.15    3.0230 140                  E143283             
  S424_2                     0.17     23.41     44.06    3.7210 140                  E143282             
  S425                       0.08     21.17     68.49    4.3060 140                  E143285             
  S426_2                     0.19     37.19     92.92    3.7660 155                  E144005             
  S427_1                     0.82     95.72     12.22    3.8430 155                  F143609             
  S427_2                     0.37     56.41      6.66    3.4130 155                  F143610             
  S428                       0.09     14.77     84.75    4.6300 155                  F147146             
  S43                        0.83     85.15     91.45    1.5370 156                  F13300              
  S43_3                      0.48     44.78     99.75    3.0460 171                  F13294              
  S431_4                     0.27     44.12     80.58    6.6750 155                  E144032             
  S432                       0.09     21.44     99.33    3.1280 155                  UN2                 
  S434                       0.07     30.95     24.45    3.3080 155                  F146006             
  S436                       0.63     82.73     83.98    2.1590 140                  E143311             
  S439_3                     0.52     65.10     39.74    3.5860 155                  E144025             
  S439_4                     0.02     13.99    100.00    3.3890 155                  E144029             
  S44                        0.06     16.37     66.77    2.6810 155                  F143517             
  S44_2                      0.64     56.98     93.98    2.5610 156                  E134211             
  S440                       0.18     27.20     78.46    4.6080 155                  F147147             
  S441                       0.19     35.94     64.15    3.0020 155                  E143312             
  S442_1                     0.07     18.73     72.67    3.1080 155                  E144010             
  S442_2                     0.06     16.38     94.78    2.1800 155                  E144013             
  S443                       0.12     22.64     75.15    6.3900 155                  E144034             
  S445_1                     0.11     17.16     81.92    5.1370 155                  F147148             
  S445_2                     0.06     18.37     46.30    3.5080 155                  F147149             
  S447                       0.31     62.01     58.76    2.6060 170                  F143693.01          
  S447_3                     0.19     39.69     46.12    3.1490 170                  F143693             
  S448                       0.13     14.47     86.47    3.0140 155                  E145006             
  S449                       0.35     37.72     35.10    3.1600 170                  F1409014            
  S45                        0.13     44.08      7.60    3.4090 156                  F136003             
  S45_1                      0.09     22.60     95.00    2.8700 171                  F13290              
  S45_2                      0.30     36.51     48.80    2.7030 171                  F13271              
  S450                       0.05     21.48     64.29    2.5390 155                  E143313             
  S451_1                     0.08     11.79     95.69    2.6430 155                  E1437182            
  S451_2                     0.09     17.44     50.83    5.2690 155                  E1437181            
  S452_1                     0.08     25.83     54.66    2.5590 155                  F146007             
  S452_2                     0.01      6.42      1.06    3.9950 155                  F146008             
  S453                       0.21     37.58     78.79    1.7930 155                  E1437171            
  S454                       0.02     10.95    100.00    2.0720 155                  E144006             
  S455                       0.26     39.58     70.80    3.6800 170                  F143652             
  S456                       0.79     53.88     67.75    5.1410 155                  E144020             
  S457                       0.17     33.17     54.95    2.9120 155                  E143998             
  S459                       0.11     45.84     61.77    3.7230 155                  E144016             
  S46                        0.60     49.03     89.71    3.0610 156                  E134210             
  S460                       0.15     42.82     88.85    1.7220 155                  E143996             
  S461                       0.81     73.23     63.35    3.3090 155                  F147150             
  S462                       0.39     59.59     91.92    1.8440 155                  E143981             
  S463_1                     0.09     16.24     93.62    2.5350 155                  E143980             
  S463_3                     0.08     24.85     83.24    4.7240 140                  E143976             
  S463_4                     0.41     43.63     72.71    2.8720 140                  E143980             
  S464                       0.02     13.63    100.00    2.9940 155                  E1437187            
  S465_1                     0.04     21.72     60.95    2.7130 155                  F146012             
  S465_2                     0.02     14.76      0.24    3.9730 155                  F146011             
  S466_2                     1.03    201.00     25.78    4.1560 155                  F143613             
  S466_3                     0.23     36.84     59.01    2.7240 170                  F1409010            
  S466_4                     0.12     27.38     64.47    2.5610 155                  F143614             
  S466_5                     0.02      9.39     66.31    3.1020 155                  F1409009            
  S467                       0.02     10.77     94.09    1.5960 155                  E1437186            
  S468                       0.16     36.61     94.22    1.5090 155                  E143995             
  S469                       0.31     57.71      4.80    2.8870 155                  F146013             
  S47                        0.55     78.45     59.58    2.1620 171                  F13281              
  S470_1                     0.21     26.23     58.16    2.6530 170                  F145016             
  S470_2                     0.27     35.73     72.53    3.5150 170                  F145018             
  S471                       0.13     28.80     64.72    2.7990 140                  E143281             
  S472_1                     0.29     56.16     74.60    3.0310 155                  E144003             
  S472_2                     0.23     40.13     77.76    2.7830 155                  E143993             
  S472_5                     0.09     19.31     86.27    3.2320 155                  E143997             
  S473                       0.28     40.55     60.72    2.9580 170                  F1409011            
  S474_1                     0.18     31.95     69.33    3.4540 170                  F145019             
  S474_2                     0.04     31.03     86.96    1.7860 170                  F145017             
  S475                       1.16    105.42     55.37    3.2680 170                  F143695             
  S476                       0.27     36.42     73.03    3.4440 155                  E144017             
  S477                       0.02     11.67      0.00    2.3160 155                  F143611             
  S478                       0.27     42.44     57.02    3.0970 170                  F145020             
  S479                       0.15     31.47     99.27    2.7740 140                  E143980             
  S48                        0.19     38.74     17.56    3.3820 156                  F143529             
  S48_1                      0.01      9.24     69.89    1.3230 156                  E133479             
  S48_2                      0.05     34.08     76.07    2.8890 156                  E133478             
  S48_4                      0.20     26.30     38.01    2.9680 155                  F143534             
  S480                       0.01      8.01      9.74    2.3310 155                  F146014             
  S481_1                     0.26     39.49     39.14    3.3740 170                  F1409007            
  S482                       0.10     33.60     33.41    4.6700 140                  E143278             
  S483                       0.18     28.21     77.78    3.1650 170                  F147021             
  S484                       0.05     19.53     17.64    3.8500 140                  E143280             
  S485                       0.05     11.90     26.04    3.2190 155                  E144023             
  S487                       1.58     70.28     53.14    3.8680 155                  E144026             
  S488_1                     0.66     56.38     53.28    3.7450 155                  F143930             
  S488_3                     0.11     40.89     72.34    4.6260 155                  F143928             
  S488_4                     0.36     39.97     50.19    3.7890 155                  F143940             
  S489                       0.89    129.62     63.66    2.4950 155                  F1409006            
  S49                        0.03     15.90     65.90    3.0360 155                  F143899             
  S491                       1.06     97.94     83.88    2.1450 155                  E143994             
  S492                       1.05     58.40     80.02    2.7450 155                  E144000             
  S494                       0.28     40.72     84.71    3.6540 155                  E146001             
  S495                       0.06     23.00     55.17    4.5320 140                  E143279             
  S497                       0.27     89.79     30.97    3.0760 140                  E143972             
  S5                         1.30    155.10     87.54    1.7960 156                  F133463             
  S50                        0.13     41.95     10.90    3.2730 156                  F143601             
  S50_2                      1.63    117.52      8.05    1.3060 156                  E1331923            
  S501                       0.09     28.12     26.22    4.8030 140                  E145050             
  S503                       0.06     19.07     68.41    4.9900 170                  F147022             
  S504_2                     0.51     69.46     82.11    2.0800 140                  E145051             
  S504_4                     0.19     46.30     58.92    3.8000 140                  E143962             
  S505                       0.58     48.31     53.87    3.5490 155                  F143929             
  S506                       0.09     18.39     71.97    3.0270 140                  E143974             
  S508_1                     0.63     87.41     35.84    2.5630 155                  F143910             
  S508_2                     0.15     26.17     32.72    2.8830 155                  F143909             
  S509                       0.59     65.72     40.00    2.9050 155                  F143905             
  S51                        0.56     62.70     26.33    2.5660 171                  F13272              
  S510                       0.18     38.65     64.47    4.0400 155                  F143927             
  S511_2                     0.10     22.14     92.68    1.1380 155                  E143778             
  S512                       1.20     83.47     89.76    2.5580 155                  E143834             
  S513                       0.43     52.47     51.25    3.6080 155                  E144027             
  S516_1                     0.09     23.32     91.29    2.0210 140                  E143725             
  S516_2                     0.34     83.33     92.35    2.5040 140                  E143722             
  S516_3                     0.38     49.29     85.65    2.7720 140                  UN83                
  S516_5                     0.04     19.45     76.30    2.7670 140                  E143723             
  S517_1                     0.06     26.87     50.94    3.3380 155                  F143907             
  S517_2                     0.02     21.47     58.55    3.2200 155                  F143908             
  S518                       0.19     43.24     46.19    3.7030 155                  F143904             
  S52                        0.77    101.95     46.46    2.9870 155                  F143902             
  S520                       0.04     16.32     40.27    4.4470 140                  E143267             
  S521                       0.72     78.15     45.01    2.8520 155                  F143925             
  S522                       0.04     15.80     57.64    6.9660 140                  11-0057             
  S523                       0.01      8.38     31.75    5.7540 155                  F143925             
  S524                       0.20     40.28     70.86    3.0400 155                  E1437183            
  S525_1                     0.39     54.14     41.36    3.7720 155                  E143884             
  S525_3                     1.06     76.11     49.97    3.4970 155                  UN82                
  S525_4                     0.13     24.52     48.51    2.7320 155                  UN82                
  S526_3                     0.20     38.21     70.08    2.9580 140                  UN71                
  S527_3                     0.09     14.44     58.27    3.4020 155                  F143899             
  S529                       0.04     18.06     89.69    1.6910 140                  UN5                 
  S53                        0.04     19.90     82.56    3.1360 171                  F134162             
  S53_1                      0.06     22.43    100.00    0.7150 171                  F13283.01           
  S53_3                      0.03     17.62     89.62    2.8750 171                  F13270              
  S53_4                      0.10     25.49     91.98    1.9550 171                  F13282              
  S530_1                     0.31     59.82     36.87    3.1500 155                  F143923             
  S531                       0.09     46.77     62.29    4.7990 140                  E143711             
  S532_1                     0.05     18.27     91.11    7.5560 140                  E143776             
  S532_3                     0.07     18.46     78.20    2.9300 140                  E143747             
  S532_4                     0.03     27.22     88.07    3.0200 140                  E143746             
  S533                       0.17     27.12     95.30    1.8570 155                  E143803             
  S534                       0.25     45.96     48.14    3.1680 155                  F143912             
  S535                       0.22     34.45     87.67    2.2960 155                  E143788             
  S536_1                     0.12     37.82     75.14    4.3340 140                  E143716             
  S536_2                     0.05     16.86     77.16    2.1080 140                  E143717             
  S537_1                     0.12     23.23     77.01    3.0730 140                  E143743             
  S537_2                     0.02     10.47     98.64    1.6210 140                  E143742             
  S538                       1.02    143.82     38.84    2.7600 155                  F143913             
  S54                        0.13     29.96     99.99    0.9630 171                  F13285.01           
  S540                       0.31     38.58     94.89    2.7350 155                  E143814             
  S540_1                     0.09     28.91     95.76    2.6840 155                  E143817             
  S540_4                     0.25     38.73     79.62    2.0640 155                  E143815             
  S540_5                     0.10     29.86     97.78    2.8490 155                  E143816             
  S541                       0.13     25.86     54.29    3.6470 155                  F143903             
  S542_1                     0.15     33.67     85.25    1.3640 140                  UN7                 
  S543                       0.06     24.17     83.70    2.9470 140                  E143720             
  S544_1                     0.08     23.20     98.15    2.1250 155                  E143809             
  S544_2                     0.03     14.16     82.76    2.8280 155                  E143807             
  S545                       0.16     57.17     79.89    3.5160 155                  E143885             
  S546                       0.12     29.31     68.04    3.0510 140                  E145061             
  S547_1                     0.09     38.27     91.08    1.4430 140                  E145067             
  S547_2                     0.05     40.52     96.53    1.6160 140                  E1437145            
  S548                       0.13     26.68     88.89    2.1030 155                  E145300             
  S55                        0.10     53.81     27.23    2.6660 155                  F143891             
  S550_1                     0.03     12.78     70.76    2.2390 155                  E143802             
  S550_2                     0.02     13.57     92.72    2.6220 155                  E143792             
  S551_1                     0.08     39.41     92.28    1.5660 140                  E1437147            
  S551_2                     0.03     16.21     99.57    1.6960 140                  E1437146            
  S553_1                     0.04     18.66     90.07    0.7040 140                  E147009             
  S554_1                     0.02     12.62     97.02    2.3450 140                  E143730             
  S554_2                     0.06     23.27     90.82    2.4070 140                  E143732             
  S555                       0.06     18.01     74.75    2.6920 140                  E143733             
  S557_3                     0.07     19.62     79.59    1.7570 155                  E143786             
  S558_1                     0.01     10.77     95.52    2.0410 155                  E143779             
  S56                        0.57     62.29     91.44    2.1610 156                  F133451             
  S561                       0.01      8.83     22.25    3.6200 140                  E143258             
  S562_2                     0.14     23.25     87.15    3.9330 140                  E143749             
  S564_1                     0.34     31.77     81.24    2.2600 155                  E143806             
  S565_2                     0.13     22.18     66.14    3.9860 155                  F143897             
  S566                       0.48     95.90     90.61    2.7630 155                  E145302             
  S567                       0.01      8.87      0.00    2.4940 140                  E143257             
  S569                       0.05     19.10     89.20    2.8060 140                  E143740             
  S57                        0.13     32.89     76.97    1.9850 171                  F143709             
  S57_2                      0.31     66.37     53.27    2.2530 171                  F13281              
  S570_1                     0.08     23.50     90.22    3.7800 140                  E1437165            
  S570_2                     0.03     18.98     98.19    2.6970 140                  E143739             
  S572                       0.01     14.77     69.46    3.1980 140                  UN8                 
  S573_2                     0.42     36.35     95.51    2.1520 155                  E143790             
  S574                       0.21     38.84     57.91    2.4100 155                  F143915             
  S575                       0.06     30.65     21.87    4.9570 140                  E143705             
  S576_1                     0.06     24.03     69.70    2.5860 140                  E1437144            
  S576_2                     0.06     17.55     95.77    1.2940 140                  E145069             
  S577_1                     0.04     22.84     47.03    2.9630 155                  F143892             
  S577_2                     0.13     32.00     48.05    3.4840 155                  F143898             
  S578                       0.07     31.72     12.09    3.4940 140                  E143707             
  S58                        0.58     80.32     55.94    3.3140 155                  UN90                
  S58_3                      0.84     66.92     87.28    2.4820 156                  F133440             
  S580                       0.04     21.66     79.39    2.2990 140                  E1437148            
  S581_1                     0.11     26.65     99.09    2.1910 155                  E143797             
  S581_3                     0.45     41.19     88.95    1.5630 155                  E143794             
  S582                       0.03     23.10     58.99    5.0010 140                  E143701             
  S584                       0.06     28.40     52.08    3.5230 140                  E143706             
  S585                       0.05     16.27     78.97    1.9820 140                  E145066             
  S586                       0.30     52.14     87.82    2.4340 155                  E143818             
  S587                       0.03     18.69     83.56    2.7390 140                  E1437149            
  S588                       0.07     21.17     92.58    2.7990 140                  E143741             
  S589_2                     0.04     22.57     95.11    3.2230 155                  E145304             
  S59                        2.48     87.32     78.30    2.4530 156                  F1390               
  S590                       0.02     13.42     99.61    2.7370 155                  E145303             
  S591                       0.37     55.74     96.83    2.5810 155                  E145305             
  S592                       0.06     19.82     88.79    2.9480 155                  E143881             
  S593                       0.92     84.73     44.48    3.6200 155                  E143888             
  S594                       0.32     35.21     56.88    2.6320 155                  F143890             
  S595                       0.69     72.91     64.92    2.1220 155                  F143891             
  S596                       0.16     35.91      0.00    1.6410 155                  F143914             
  S598                       0.01      8.09    100.00    2.0650 155                  E143850             
  S599                       0.01      9.29     75.08    4.6740 155                  E143842             
  S6                         0.21     38.77     92.38    2.3460 156                  E133464             
  S60                        0.02     10.04     13.54    6.1480 156                  F143544             
  S60_2                      0.64     56.48     15.31    2.2500 156                  E134223             
  S60_4                      0.22     45.16     47.91    3.0770 156                  E134222             
  S600                       0.07     20.54     92.72    0.9530 155                  F143895             
  S601_1                     0.62     82.14     97.16    2.5100 155                  E143839             
  S601_2                     0.82     55.62     74.66    6.8730 155                  E143839             
  S602                       0.14     37.72     94.10    2.1930 155                  UN85                
  S603                       0.07     28.64     32.89    2.2060 155                  F143916             
  S604                       0.29     68.93     96.30    3.5600 155                  E145400             
  S605_1                     0.01     12.69     88.31    1.0110 140                  E143750             
  S606                       0.07     24.63     83.54    2.4470 155                  UN67                
  S607                       0.06     23.89     17.27    2.5750 155                  F143916.5           
  S608                       0.21     49.05      4.59    2.1390 155                  F143918             
  S609                       0.12     30.44    100.00    2.9060 155                  UN9                 
  S61                        0.30     35.59     81.22    2.5490 156                  UN39                
  S610_1                     0.05     15.54     77.77    1.6410 140                  E143752             
  S611                       0.01     10.46      6.75    1.0050 155                  F143917.5           
  S612                       0.02     16.65      0.00    2.4360 155                  F143917             
  S613_1                     0.20     47.11     94.79    1.5610 155                  F143944             
  S613_2                     0.05     18.53     15.13    1.5040 155                  F143945             
  S614                       0.13     45.21     82.50    2.6500 155                  E145307             
  S615_1                     0.01     11.38    100.00    3.0930 155                  E143848             
  S615_2                     0.10     48.37     42.94    2.4260 155                  E143849             
  S617                       0.72     77.00     63.67    2.2380 155                  F143941             
[...]
  S602                       1.67       0.00       0.00       0.10       0.08       0.00       0.08        0.00     0.00   0.051
  S603                       1.67       0.00       0.00       1.12       0.07       0.00       0.07        0.00     0.00   0.044
  S604                       1.67       0.00       0.00       0.06       0.09       0.00       0.09        0.00     0.00   0.056
  S605_1                     1.67       0.00       0.00       0.19       0.15       0.00       0.15        0.00     0.00   0.088
  S606                       1.67       0.00       0.00       0.27       0.10       0.00       0.10        0.00     0.00   0.061
  S607                       1.67       0.00       0.00       1.38       0.05       0.00       0.05        0.00     0.00   0.029
  S608                       1.67       0.00       0.00       1.59       0.02       0.00       0.02        0.00     0.00   0.009
  S609                       1.67       0.00       0.00       0.00       1.67       0.00       1.67        0.00     0.02   1.000
  S61                        1.67       0.00       0.00       0.31       0.04       0.00       0.04        0.00     0.00   0.026
  S610_1                     1.67       0.00       0.00       0.37       0.08       0.00       0.08        0.00     0.00   0.047
  S611                       1.67       0.00       0.00       1.55       0.02       0.00       0.02        0.00     0.00   0.015
  S612                       1.67       0.00       0.00       1.67       0.00       0.00       0.00        0.00     0.00   0.000
  S613_1                     1.67       0.00       0.00       0.09       0.07       0.00       0.07        0.00     0.00   0.040
  S613_2                     1.67       0.00       0.00       1.41       0.04       0.00       0.04        0.00     0.00   0.024
  S614                       1.67       0.00       0.00       0.29       0.11       0.00       0.11        0.00     0.00   0.064
  S615_1                     1.67       0.00       0.00       0.00       1.67       0.00       1.67        0.00     0.00   1.000
  S615_2                     1.67       0.00       0.00       0.95       0.09       0.00       0.09        0.00     0.00   0.057
  S617                       1.67       0.00       0.00       0.61       0.04       0.00       0.04        0.00     0.00   0.022
  S618_1                     1.67       0.00       0.00       0.01       0.15       0.00       0.15        0.00     0.00   0.090
  S618_2                     1.67       0.00       0.00       0.45       0.10       0.00       0.10        0.00     0.00   0.057
  S619                       1.67       0.00       0.00       0.15       0.08       0.00       0.08        0.00     0.00   0.048
  S62                        1.67       0.00       0.00       0.22       0.13       0.00       0.13        0.00     0.00   0.078
  S620                       1.67       0.00       0.00       0.00       1.67       0.00       1.67        0.00     0.01   1.000
  S621                       1.67       0.00       0.00       0.89       0.05       0.00       0.05        0.00     0.01   0.029
  S622                       1.67       0.00       0.00       0.00       0.14       0.00       0.14        0.00     0.00   0.083
  S623                       1.67       0.00       0.00       0.05       0.10       0.00       0.10        0.00     0.00   0.057
  S624                       1.67       0.00       0.00       0.85       0.07       0.00       0.07        0.00     0.00   0.045
  S625                       1.67       0.00       0.00       0.02       0.08       0.00       0.08        0.00     0.00   0.047
  S626                       1.67       0.00       0.00       0.15       0.06       0.00       0.06        0.00     0.00   0.035
  S627                       1.67       0.00       0.00       0.28       0.10       0.00       0.10        0.00     0.00   0.061
  S628                       1.67       0.00       0.00       0.07       0.06       0.00       0.06        0.00     0.00   0.039
  S63                        1.67       0.00       0.00       0.62       0.10       0.00       0.10        0.00     0.00   0.061
  S63_1                      1.67       0.00       0.00       1.43       0.03       0.00       0.03        0.00     0.00   0.019
  S63_2                      1.67       0.00       0.00       0.76       0.06       0.00       0.06        0.00     0.00   0.035
  S63_3                      1.67       0.00       0.00       1.19       0.05       0.00       0.05        0.00     0.00   0.030
  S63_4                      1.67       0.00       0.00       0.67       0.14       0.00       0.14        0.00     0.00   0.086
  S63_6                      1.67       0.00       0.00       0.50       0.12       0.00       0.12        0.00     0.00   0.071
  S631                       1.67       0.00       0.00       0.00       0.09       0.00       0.09        0.00     0.00   0.054
  S632                       1.67       0.00       0.00       0.00       1.67       0.00       1.67        0.00     0.00   1.000
  S633                       1.67       0.00       0.00       0.16       0.11       0.00       0.11        0.00     0.00   0.064
  S634                       1.67       0.00       0.00       0.23       0.14       0.00       0.14        0.00     0.00   0.084
  S635                       1.67       0.00       0.00       0.45       0.17       0.00       0.17        0.00     0.00   0.105
  S636_3                     1.67       0.00       0.00       0.27       0.11       0.00       0.11        0.00     0.00   0.063
  S639_1                     1.67       0.00       0.00       0.31       0.07       0.00       0.07        0.00     0.00   0.040
  S639_2                     1.67       0.00       0.00       0.43       0.13       0.00       0.13        0.00     0.00   0.076
  S64                        1.67       0.00       0.00       1.67       0.00       0.00       0.00        0.00     0.00   0.000
  S640                       1.67       0.00       0.00       0.03       0.10       0.00       0.10        0.00     0.00   0.063
  S641                       1.67       0.00       0.00       1.17       0.07       0.00       0.07        0.00     0.00   0.040
  S642_1                     1.67       0.00       0.00       0.83       0.04       0.00       0.04        0.00     0.00   0.023
  S642_3                     1.67       0.00       0.00       0.92       0.05       0.00       0.05        0.00     0.00   0.029
  S643                       1.67       0.00       0.00       0.75       0.05       0.00       0.05        0.00     0.00   0.029
  S644                       1.67       0.00       0.00       0.00       0.12       0.00       0.12        0.00     0.00   0.073
  S645                       1.67       0.00       0.00       0.64       0.07       0.00       0.07        0.00     0.00   0.041
  S646                       1.67       0.00       0.00       1.29       0.03       0.00       0.03        0.00     0.00   0.020
  S648                       1.67       0.00       0.00       0.00       1.67       0.00       1.67        0.00     0.02   1.000
  S649                       1.67       0.00       0.00       0.47       0.06       0.00       0.06        0.00     0.00   0.033
  S65                        1.67       0.00       0.00       0.13       0.07       0.00       0.07        0.00     0.00   0.041
  S650_1                     1.67       0.00       0.00       0.00       0.15       0.00       0.15        0.00     0.00   0.092
  S651                       1.67       0.00       0.00       0.00       1.67       0.00       1.67        0.00     0.00   1.000
  S652                       1.67       0.00       0.00       0.00       1.67       0.00       1.67        0.00     0.00   1.000
  S653                       1.67       0.00       0.00       0.03       0.16       0.00       0.16        0.00     0.00   0.095
  S654                       1.67       0.00       0.00       0.28       0.14       0.00       0.14        0.00     0.00   0.084
  S656                       1.67       0.00       0.00       0.86       0.12       0.00       0.12        0.00     0.00   0.072
  S657                       1.67       0.00       0.00       0.35       0.12       0.00       0.12        0.00     0.00   0.070
  S658                       1.67       0.00       0.00       0.07       0.17       0.00       0.17        0.00     0.00   0.104
  S659                       1.67       0.00       0.00       0.25       0.14       0.00       0.14        0.00     0.00   0.082
  S66                        1.67       0.00       0.00       1.43       0.03       0.00       0.03        0.00     0.00   0.019
  S66_4                      1.67       0.00       0.00       1.36       0.04       0.00       0.04        0.00     0.00   0.022
  S660                       1.67       0.00       0.00       0.21       0.08       0.00       0.08        0.00     0.00   0.046
  S661                       1.67       0.00       0.00       0.45       0.09       0.00       0.09        0.00     0.00   0.056
  S662                       1.67       0.00       0.00       0.02       0.08       0.00       0.08        0.00     0.00   0.050
  S663                       1.67       0.00       0.00       0.00       1.67       0.00       1.67        0.00     0.01   1.000
  S664                       1.67       0.00       0.00       0.13       0.07       0.00       0.07        0.00     0.00   0.043
  S666                       1.67       0.00       0.00       0.05       0.03       0.00       0.03        0.00     0.00   0.017
  S668                       1.67       0.00       0.00       0.75       0.10       0.00       0.10        0.00     0.00   0.058
  S669                       1.67       0.00       0.00       0.05       0.05       0.00       0.05        0.00     0.00   0.030
  S67                        1.67       0.00       0.00       0.17       0.07       0.00       0.07        0.00     0.00   0.040
  S670                       1.67       0.00       0.00       1.13       0.09       0.00       0.09        0.00     0.00   0.052
  S671                       1.67       0.00       0.00       1.53       0.03       0.00       0.03        0.00     0.00   0.019
  S672                       1.67       0.00       0.00       0.39       0.15       0.00       0.15        0.00     0.00   0.089
  S673                       1.67       0.00       0.00       0.14       0.18       0.00       0.18        0.00     0.00   0.106
  S674                       1.67       0.00       0.00       0.00       1.67       0.00       1.67        0.00     0.00   1.000
  S675_1                     1.67       0.00       0.00       0.56       0.05       0.00       0.05        0.00     0.00   0.029
  S678_1                     1.67       0.00       0.00       0.78       0.07       0.00       0.07        0.00     0.00   0.042
  S678_2                     1.67       0.00       0.00       1.34       0.05       0.00       0.05        0.00     0.00   0.032
  S68                        1.67       0.00       0.00       0.84       0.10       0.00       0.10        0.00     0.00   0.061
  S683                       1.67       0.00       0.00       0.43       0.10       0.00       0.10        0.00     0.00   0.058
  S684                       1.67       0.00       0.00       0.59       0.16       0.00       0.16        0.00     0.00   0.094
  S685                       1.67       0.00       0.00       0.05       0.07       0.00       0.07        0.00     0.00   0.039
  S686                       1.67       0.00       0.00       0.49       0.06       0.00       0.06        0.00     0.00   0.034
  S688                       1.67       0.00       0.00       0.41       0.06       0.00       0.06        0.00     0.00   0.035
  S689                       1.67       0.00       0.00       0.04       0.05       0.00       0.05        0.00     0.00   0.031
  S69                        1.67       0.00       0.00       1.01       0.07       0.00       0.07        0.00     0.00   0.044
  S690                       1.67       0.00       0.00       0.63       0.07       0.00       0.07        0.00     0.00   0.042
  S691_1                     1.67       0.00       0.00       0.84       0.10       0.00       0.10        0.00     0.00   0.059
  S692                       1.67       0.00       0.00       1.42       0.04       0.00       0.04        0.00     0.00   0.023
  S693_2                     1.67       0.00       0.00       0.41       0.06       0.00       0.06        0.00     0.00   0.036
  S694_1                     1.67       0.00       0.00       1.28       0.07       0.00       0.07        0.00     0.00   0.042
  S694_2                     1.67       0.00       0.00       0.61       0.07       0.00       0.07        0.00     0.00   0.043
  S695                       1.67       0.00       0.00       0.74       0.16       0.00       0.16        0.00     0.00   0.094
  S696_2                     1.67       0.00       0.00       0.02       0.08       0.00       0.08        0.00     0.00   0.048
  S696_3                     1.67       0.00       0.00       0.24       0.05       0.00       0.05        0.00     0.00   0.029
  S696_4                     1.67       0.00       0.00       0.26       0.03       0.00       0.03        0.00     0.00   0.017
  S7                         1.67       0.00       0.00       0.17       0.03       0.00       0.03        0.00     0.00   0.020
  S7_2                       1.67       0.00       0.00       0.28       0.02       0.00       0.02        0.00     0.00   0.013
  S70                        1.67       0.00       0.00       0.67       0.14       0.00       0.14        0.00     0.00   0.085
  S70_1                      1.67       0.00       0.00       0.73       0.11       0.00       0.11        0.00     0.00   0.064
  S70_2                      1.67       0.00       0.00       0.00       1.67       0.00       1.67        0.00     0.00   1.000
  S70_3                      1.67       0.00       0.00       1.14       0.07       0.00       0.07        0.00     0.00   0.043
  S70_4                      1.67       0.00       0.00       0.01       0.07       0.00       0.07        0.00     0.00   0.039
  S70_6                      1.67       0.00       0.00       0.80       0.08       0.00       0.08        0.00     0.00   0.048
  S71                        1.67       0.00       0.00       0.05       0.15       0.00       0.15        0.00     0.00   0.091
  S71_3                      1.67       0.00       0.00       0.10       0.02       0.00       0.02        0.00     0.00   0.013
  S72                        1.67       0.00       0.00       0.24       0.10       0.00       0.10        0.00     0.00   0.060
  S73                        1.67       0.00       0.00       0.20       0.10       0.00       0.10        0.00     0.00   0.058
  S74                        1.67       0.00       0.00       1.45       0.04       0.00       0.04        0.00     0.00   0.026
  S75                        1.67       0.00       0.00       0.00       1.67       0.00       1.67        0.00     0.00   1.000
  S75_1                      1.67       0.00       0.00       0.10       0.03       0.00       0.03        0.00     0.01   0.019
  S75_2                      1.67       0.00       0.00       0.00       0.05       0.00       0.05        0.00     0.00   0.029
  S76                        1.67       0.00       0.00       0.05       0.08       0.00       0.08        0.00     0.00   0.048
  S77                        1.67       0.00       0.00       0.08       0.16       0.00       0.16        0.00     0.00   0.094
  S78                        1.67       0.00       0.00       0.53       0.05       0.00       0.05        0.00     0.00   0.033
  S78_2                      1.67       0.00       0.00       0.00       1.67       0.00       1.67        0.00     0.00   1.000
  S78_3                      1.67       0.00       0.00       0.37       0.09       0.00       0.09        0.00     0.00   0.055
  S78_4                      1.67       0.00       0.00       0.21       0.09       0.00       0.09        0.00     0.00   0.055
  S78_6                      1.67       0.00       0.00       0.14       0.12       0.00       0.12        0.00     0.00   0.072
  S79                        1.67       0.00       0.00       0.00       1.67       0.00       1.67        0.00     0.00   1.000
  S8                         1.67       0.00       0.00       0.12       0.09       0.00       0.09        0.00     0.00   0.056
  S80                        1.67       0.00       0.00       0.00       1.67       0.00       1.67        0.00     0.00   1.000
  S81                        1.67       0.00       0.00       0.26       0.10       0.00       0.10        0.00     0.00   0.058
  S81_2                      1.67       0.00       0.00       1.42       0.05       0.00       0.05        0.00     0.00   0.028
  S82                        1.67       0.00       0.00       0.07       0.04       0.00       0.04        0.00     0.00   0.023
  S83                        1.67       0.00       0.00       1.01       0.11       0.00       0.11        0.00     0.00   0.063
  S83_1                      1.67       0.00       0.00       0.93       0.06       0.00       0.06        0.00     0.00   0.038
  S83_2                      1.67       0.00       0.00       0.29       0.06       0.00       0.06        0.00     0.00   0.036
  S83_3                      1.67       0.00       0.00       1.21       0.08       0.00       0.08        0.00     0.00   0.050
  S83_4                      1.67       0.00       0.00       1.01       0.09       0.00       0.09        0.00     0.00   0.052
  S83_6                      1.67       0.00       0.00       1.64       0.01       0.00       0.01        0.00     0.00   0.004
  S84                        1.67       0.00       0.00       0.00       1.67       0.00       1.67        0.00     0.01   1.000
  S85                        1.67       0.00       0.00       0.10       0.04       0.00       0.04        0.00     0.00   0.021
  S86                        1.67       0.00       0.00       0.28       0.05       0.00       0.05        0.00     0.01   0.032
  S87                        1.67       0.00       0.00       0.36       0.05       0.00       0.05        0.00     0.00   0.027
  S88                        1.67       0.00       0.00       0.54       0.05       0.00       0.05        0.00     0.00   0.032
  S89                        1.67       0.00       0.00       0.00       1.67       0.00       1.67        0.00     0.00   1.000
  S9                         1.67       0.00       0.00       0.07       0.03       0.00       0.03        0.00     0.00   0.018
  S90                        1.67       0.00       0.00       0.00       1.67       0.00       1.67        0.00     0.00   1.000
  S91                        1.67       0.00       0.00       0.02       0.04       0.00       0.04        0.00     0.00   0.022
  S92                        1.67       0.00       0.00       0.55       0.15       0.00       0.15        0.00     0.00   0.088
  S93                        1.67       0.00       0.00       1.38       0.05       0.00       0.05        0.00     0.00   0.031
  S94                        1.67       0.00       0.00       0.55       0.10       0.00       0.10        0.00     0.00   0.060
  S95                        1.67       0.00       0.00       0.24       0.08       0.00       0.08        0.00     0.00   0.051
  S96                        1.67       0.00       0.00       0.00       1.67       0.00       1.67        0.00     0.01   1.000
  S97                        1.67       0.00       0.00       0.00       1.67       0.00       1.67        0.00     0.01   1.000
  S98                        1.67       0.00       0.00       0.00       1.67       0.00       1.67        0.00     0.00   1.000
  

  Analysis begun on:  Tue Jan 27 18:11:11 2026
  Analysis ended on:  Tue Jan 27 18:11:12 2026
  Total elapsed time: 00:00:01